 ! ************************************************************************
! ************************************************************************
! ******************* For further documentation of mechanism:  ***********
! ******************* see references below and their citations ***********
! ************************************************************************
! ************************************************************************
!
!
 ELEMENTS
O  H  C  N HE AR  
 END  
!
 SPECIES    
NH3 NO2 NO N2O
H2 O2 O3 H O OH HO2 H2O H2O2 
OH*
!
CO CO2 CH2O HCO C2H5OH
CH3OCHO CH3OH 
CH3OCH3 C2H2
!
!***CH4***
CH3 CH4 CH2 CH2(S) CH C
CH3O CH2OH 
!
!***C2***
C2 C2H2 C2H C2H3 C2H4 C2H5 C2H6
CH2CO HCCO C2O 
CH2HCO C2H2OH  CH3HCO CH3CO HCCOH
C2H5CHO C2H5CO
CHCHO H2CC CH2CHOO CH2CHO
!
!
!***C3***
C3H2 C3H4 H2CCCH
!
!***C4***
C4H2
!
!***cyanides***
!    
HCN HNC CN HOCN HCNO NCO H2CN HCNH CH3CN CH2CN NCCN NCN
C2N2    
!
!***DME***
!
CH3OCH2 CH3O2
CH3OCH2O2H O2CH2OCH2O2H HO2CH2OCHO  
CH3OCH2O CH3OCH2O2 CH2OCH2O2H CH3OCH2OH CH3OOH 
CH3NO CH3NO2 H2CNO2
!
!***Ethanol***
!
C2H5OH C2H4OH CH3CHOH CH3CH2O 
!
!***Methyl formate***
!
CH2OCHO CH3OCO 
HCOOH CH3CO2CH3 CH3OCOO2H OCH2O2H OCH2OCO   
CH3CH2OCHO OCH2OCHO OOCH2OCHO CH2OOH 
CH3OCOO CH3OCOOO HOOCH2OCO CH2OCOOOH 
OCHOCOOOH OOCH2OCOOOH HOOCH2OCOOO CHOOCO
!
!***DMM***
CH3OCH2OCH3 CH3OCH2OCH2 CH3OCHOCH3
CH3O2H
!
!***Glyoxal***
OCHCHO HOCH(OO)CHO HOCH(OOH)CHO OCHCO HOCHO
!
!Acid formic
HOCH2OCO  HOCH2O OCHO HOCHOH  HOCO 
!
NO NH3
NH2 NH N NNH N2H4 N2H3 tHNNH cHNNH H2NN 
NH2OH H2NO HNOH HNO HON HONO HNO2 NO3 HONO2 
H2NCO HNCO N2H2 CH3ONO CH3ONO2
!
AR HE N2
!
END
!
!
THERMO
   300.00   1000.00   5000.00
C2H4              121286C   2H   4          G  0300.00   5000.00  1000.00      1
 0.03528418E+02 0.11485185E-01-0.04418385E-04 0.07844600E-08-0.05266848E-12    2
 0.04428288E+05 0.02230389E+02-0.08614880E+01 0.02796162E+00-0.03388677E-03    3
 0.02785152E-06-0.09737879E-10 0.05573046E+05 0.02421148E+03                   4
CO                121286C   1O   1          G  0300.00   5000.00  1000.00      1
 0.03025078E+02 0.14426885E-02-0.05630827E-05 0.10185813E-09-0.06910951E-13    2
-0.14268350E+05 0.06108217E+02 0.03262451E+02 0.15119409E-02-0.03881755E-04    3
 0.05581944E-07-0.02474951E-10-0.14310539E+05 0.04848897E+02                   4
CO2               121286C   1O   2          G  0300.00   5000.00  1000.00      1
 0.04453623E+02 0.03140168E-01-0.12784105E-05 0.02393996E-08-0.16690333E-13    2
-0.04896696E+06-0.09553959E+01 0.02275724E+02 0.09922072E-01-0.10409113E-04    3
 0.06866686E-07-0.02117280E-10-0.04837314E+06 0.10188488E+02                   4
CH4               121286C   1H   4          G  0300.00   5000.00  1000.00      1
 0.01683478E+02 0.10237236E-01-0.03875128E-04 0.06785585E-08-0.04503423E-12    2
-0.10080787E+05 0.09623395E+02 0.07787415E+01 0.01747668E+00-0.02783409E-03    3
 0.03049708E-06-0.12239307E-10-0.09825229E+05 0.13722195E+02                   4
CH2O              121286C   1H   2O   1     G  0300.00   5000.00  1000.00      1
 0.02995606E+02 0.06681321E-01-0.02628954E-04 0.04737153E-08-0.03212517E-12    2
-0.15320369E+05 0.06912572E+02 0.16527311E+01 0.12631439E-01-0.01888168E-03    3
 0.02050031E-06-0.08413237E-10-0.14865404E+05 0.13784820E+02                   4
H                 120186H   1               G  0300.00   5000.00  1000.00      1
 0.02500000E+02 0.00000000E+00 0.00000000E+00 0.00000000E+00 0.00000000E+00    2
 0.02547162E+06-0.04601176E+01 0.02500000E+02 0.00000000E+00 0.00000000E+00    3
 0.00000000E+00 0.00000000E+00 0.02547162E+06-0.04601176E+01                   4
H2                121286H   2               G  0300.00   5000.00  1000.00      1
 0.02991423E+02 0.07000644E-02-0.05633828E-06-0.09231578E-10 0.15827519E-14    2
-0.08350340E+04-0.13551101E+01 0.03298124E+02 0.08249441E-02-0.08143015E-05    3
-0.09475434E-09 0.04134872E-11-0.10125209E+04-0.03294094E+02                   4
C                 121086C   1               G  0300.00   5000.00  1000.00      1
 0.02602087E+02-0.01787081E-02 0.09087041E-06-0.11499333E-10 0.03310844E-14    2
 0.08542154E+06 0.04195177E+02 0.02498584E+02 0.08085776E-03-0.02697697E-05    3
 0.03040729E-08-0.11066518E-12 0.08545878E+06 0.04753459E+02                   4
CH                121286C   1H   1          G  0300.00   5000.00  1000.00      1
 0.02196223E+02 0.02340381E-01-0.07058201E-05 0.09007582E-09-0.03855040E-13    2
 0.07086723E+06 0.09178373E+02 0.03200202E+02 0.02072875E-01-0.05134431E-04    3
 0.05733890E-07-0.01955533E-10 0.07045259E+06 0.03331587E+02                   4
CH2(S)             83194H   2C   1    0    0G   300.000  4000.000 1400.00      1
 0.40752106E+01 0.15779120E-02-0.10806129E-06-0.84592437E-10 0.14033284E-13    2
 0.50007492E+05-0.15480316E+01 0.35932946E+01 0.13151238E-02 0.30756846E-06    3
 0.42637904E-09-0.34178712E-12 0.50451547E+05 0.17780241E+01                   4
CH2                83194H   2C   1    0    0G   300.000  4000.000 1400.00      1
 0.39737520E+01 0.16097502E-02-0.10785119E-06-0.86399922E-10 0.14301196E-13    2
 0.45608973E+05 0.75549729E-01 0.36872995E+01 0.15066403E-02 0.69679857E-07    3
 0.23537297E-09-0.19397147E-12 0.45863672E+05 0.20267601E+01                   4
CH3               121286C   1H   3          G  0300.00   5000.00  1000.00      1
 0.02844051E+02 0.06137974E-01-0.02230345E-04 0.03785161E-08-0.02452159E-12    2
 0.16437809E+05 0.05452697E+02 0.02430442E+02 0.11124099E-01-0.01680220E-03    3
 0.16218288E-07-0.05864952E-10 0.16423781E+05 0.06789794E+02                   4
O                 120186O   1               G  0300.00   5000.00  1000.00      1
 0.02542059E+02-0.02755061E-03-0.03102803E-07 0.04551067E-10-0.04368051E-14    2
 0.02923080E+06 0.04920308E+02 0.02946428E+02-0.16381665E-02 0.02421031E-04    3
-0.16028431E-08 0.03890696E-11 0.02914764E+06 0.02963995E+02                   4
CH4               121286C   1H   4          G  0300.00   5000.00  1000.00      1
 0.01683478E+02 0.10237236E-01-0.03875128E-04 0.06785585E-08-0.04503423E-12    2
-0.10080787E+05 0.09623395E+02 0.07787415E+01 0.01747668E+00-0.02783409E-03    3
 0.03049708E-06-0.12239307E-10-0.09825229E+05 0.13722195E+02                   4
OH                121286O   1H   1          G  0300.00   5000.00  1000.00      1
 0.02882730E+02 0.10139743E-02-0.02276877E-05 0.02174683E-09-0.05126305E-14    2
 0.03886888E+05 0.05595712E+02 0.03637266E+02 0.01850910E-02-0.16761646E-05    3
 0.02387202E-07-0.08431442E-11 0.03606781E+05 0.13588605E+01                   4
H2O                20387H   2O   1          G  0300.00   5000.00  1000.00      1
 0.02672145E+02 0.03056293E-01-0.08730260E-05 0.12009964E-09-0.06391618E-13    2
-0.02989921E+06 0.06862817E+02 0.03386842E+02 0.03474982E-01-0.06354696E-04    3
 0.06968581E-07-0.02506588E-10-0.03020811E+06 0.02590232E+02                   4
C2                121286C   2               G  0300.00   5000.00  1000.00      1
 0.04135978E+02 0.06531618E-03 0.01837099E-05-0.05295085E-09 0.04712137E-13    2
 0.09967272E+06 0.07472923E+01 0.06996045E+02-0.07400601E-01 0.03234703E-04    3
 0.04802535E-07-0.03295917E-10 0.09897487E+06-0.13862268E+02                   4
C2H                83194H   1C   2    0    0G   300.000  4000.000 1400.00      1
 0.52086663E+01 0.12875765E-02-0.10398387E-06-0.67526325E-10 0.11751871E-13    2
 0.64697773E+05-0.53721781E+01 0.39396334E+01 0.32114412E-02-0.39412765E-06    3
-0.74782530E-09 0.27493521E-12 0.65224684E+05 0.17814000E+01                   4
C2H2              121386C   2H   2          G  0300.00   5000.00  1000.00      1
 0.04436770E+02 0.05376039E-01-0.01912816E-04 0.03286379E-08-0.02156709E-12    2
 0.02566766E+06-0.02800338E+02 0.02013562E+02 0.15190446E-01-0.16163189E-04    3
 0.09078992E-07-0.01912746E-10 0.02612444E+06 0.08805378E+02                   4
C2H3               83194H   3C   2    0    0G   300.000  4000.000 1400.00      1
 0.71861677E+01 0.34552682E-02-0.29435373E-06-0.20681942E-09 0.36797774E-13    2
 0.32229627E+05-0.15977573E+02 0.24955740E+01 0.10269993E-01-0.10226917E-05    3
-0.27594382E-08 0.96919825E-12 0.34232813E+05 0.10614626E+02                   4
CO                121286C   1O   1          G  0300.00   5000.00  1000.00      1
 0.03025078E+02 0.14426885E-02-0.05630827E-05 0.10185813E-09-0.06910951E-13    2
-0.14268350E+05 0.06108217E+02 0.03262451E+02 0.15119409E-02-0.03881755E-04    3
 0.05581944E-07-0.02474951E-10-0.14310539E+05 0.04848897E+02                   4
C2H4              121286C   2H   4          G  0300.00   5000.00  1000.00      1
 0.03528418E+02 0.11485185E-01-0.04418385E-04 0.07844600E-08-0.05266848E-12    2
 0.04428288E+05 0.02230389E+02-0.08614880E+01 0.02796162E+00-0.03388677E-03    3
 0.02785152E-06-0.09737879E-10 0.05573046E+05 0.02421148E+03                   4
HCO               121286H   1C   1O   1     G  0300.00   5000.00  1000.00      1
 0.03557271E+02 0.03345572E-01-0.13350060E-05 0.02470572E-08-0.01713850E-12    2
 0.03916324E+05 0.05552299E+02 0.02898329E+02 0.06199146E-01-0.09623084E-04    3
 0.10898249E-07-0.04574885E-10 0.04159922E+05 0.08983614E+02                   4
N2                121286N   2               G  0300.00   5000.00  1000.00      1
 0.02926640E+02 0.14879768E-02-0.05684760E-05 0.10097038E-09-0.06753351E-13    2
-0.09227977E+04 0.05980528E+02 0.03298677E+02 0.14082404E-02-0.03963222E-04    3
 0.05641515E-07-0.02444854E-10-0.10208999E+04 0.03950372E+02                   4
C2H5               83194H   5C   2    0    0G   300.000  4000.000 1400.00      1
 0.87349157E+01 0.54537677E-02-0.37647177E-06-0.31297920E-09 0.52844000E-13    2
 0.10265269E+05-0.23104086E+02 0.24398923E+01 0.13747212E-01-0.85500653E-06    3
-0.31469924E-08 0.93754355E-12 0.13158588E+05 0.13099146E+02                   4
CH2O              121286C   1H   2O   1     G  0300.00   5000.00  1000.00      1
 0.02995606E+02 0.06681321E-01-0.02628954E-04 0.04737153E-08-0.03212517E-12    2
-0.15320369E+05 0.06912572E+02 0.16527311E+01 0.12631439E-01-0.01888168E-03    3
 0.02050031E-06-0.08413237E-10-0.14865404E+05 0.13784820E+02                   4
C2H6              121686C   2H   6          G  0300.00   4000.00  1000.00      1
 0.04825938E+02 0.13840429E-01-0.04557258E-04 0.06724967E-08-0.03598161E-12    2
-0.12717793E+05-0.05239506E+02 0.14625388E+01 0.15494667E-01 0.05780507E-04    3
-0.12578319E-07 0.04586267E-10-0.11239176E+05 0.14432295E+02                   4
CH2OH             120186H   3C   1O   1     G  0250.00   4000.00  1000.00      1
 0.06327520E+02 0.03608270E-01-0.03201547E-05-0.01938750E-08 0.03509704E-12    2
-0.04474509E+05-0.08329365E+02 0.02862628E+02 0.10015273E-01-0.05285435E-05    3
-0.05138539E-07 0.02246041E-10-0.03349678E+05 0.10397938E+02                   4
CH3O              121686C   1H   3O   1     G  0300.00   3000.00  1000.00      1
 0.03770799E+02 0.07871497E-01-0.02656384E-04 0.03944431E-08-0.02112616E-12    2
 0.12783252E+03 0.02929575E+02 0.02106204E+02 0.07216595E-01 0.05338472E-04    3
-0.07377636E-07 0.02075610E-10 0.09786011E+04 0.13152177E+02                   4
O2                121386O   2               G  0300.00   5000.00  1000.00      1
 0.03697578E+02 0.06135197E-02-0.12588420E-06 0.01775281E-09-0.11364354E-14    2
-0.12339301E+04 0.03189165E+02 0.03212936E+02 0.11274864E-02-0.05756150E-05    3
 0.13138773E-08-0.08768554E-11-0.10052490E+04 0.06034737E+02                   4
CH3OH             121686C   1H   4O   1     G  0300.00   5000.00  1000.00      1
 0.04029061E+02 0.09376593E-01-0.03050254E-04 0.04358793E-08-0.02224723E-12    2
-0.02615791E+06 0.02378195E+02 0.02660115E+02 0.07341508E-01 0.07170050E-04    3
-0.08793194E-07 0.02390570E-10-0.02535348E+06 0.11232631E+02                   4
HO2                20387H   1O   2          G  0300.00   5000.00  1000.00      1
 0.04072191E+02 0.02131296E-01-0.05308145E-05 0.06112269E-09-0.02841164E-13    2
-0.15797270E+03 0.03476029E+02 0.02979963E+02 0.04996697E-01-0.03790997E-04    3
 0.02354192E-07-0.08089024E-11 0.01762273E+04 0.09222724E+02                   4
H2O2              120186H   2O   2          G  0300.00   5000.00  1000.00      1
 0.04573167E+02 0.04336136E-01-0.14746888E-05 0.02348903E-08-0.14316536E-13    2
-0.01800696E+06 0.05011369E+01 0.03388753E+02 0.06569226E-01-0.14850125E-06    3
-0.04625805E-07 0.02471514E-10-0.01766314E+06 0.06785363E+02                   4
C3H2              102193H   2C   3          G  0150.00   4000.00  1000.00      1
 0.07670981E+02 0.02748749E-01-0.04370942E-05-0.06455599E-09 0.16638874E-13    2
 0.06259722E+06-0.12368903E+02 0.03166713E+02 0.02482571E+00-0.04591637E-03    3
 0.04268019E-06-0.14821524E-10 0.06350421E+06 0.08869446E+02                   4
H2CCCH            032599C   3H   3          G  0300.00   4000.00  1000.00      1
 0.08831047E+02 0.04357194E-01-0.04109066E-05-0.02368723E-08 0.04376520E-12    2
 0.39983875E+05-0.22559194E+02 0.04754199E+02 0.11080277E-01 0.02793323E-05    3
-0.05479212E-07 0.01949629E-10 0.41398515E+05-1.94548824E-01                   4
AR                120186AR  1               G  0300.00   5000.00  1000.00      1
 0.02500000E+02 0.00000000E+00 0.00000000E+00 0.00000000E+00 0.00000000E+00    2
-0.07453750E+04 0.04366000E+02 0.02500000E+02 0.00000000E+00 0.00000000E+00    3
 0.00000000E+00 0.00000000E+00-0.07453750E+04 0.04366000E+02                   4
C2O               121286C   2O   1          G  0300.00   5000.00  1000.00      1
 0.04849809E+02 0.02947585E-01-0.10907286E-05 0.01792562E-08-0.11157585E-13    2
 0.03282055E+06-0.06453225E+01 0.03368850E+02 0.08241803E-01-0.08765145E-04    3
 0.05569262E-07-0.15400086E-11 0.03317081E+06 0.06713314E+02                   4
C3H4              101993H   4C   3          G  0300.00   4000.00  1400.00      1
 0.09776256E+02 0.05302137E-01-0.03701117E-05-0.03026385E-08 0.05089581E-12    2
 0.01954972E+06-0.03077061E+03 0.02539830E+02 0.16334371E-01-0.01764950E-04    3
-0.04647365E-07 0.01729130E-10 0.02251242E+06 0.09935702E+02                   4
C3H4P             101993H   4C   3          G  0300.00   4000.00  1400.00      1
 0.09768102E+02 0.05219151E-01-0.03753140E-05-0.02992191E-08 0.05107878E-12    2
 0.01860277E+06-0.03020678E+03 0.03029730E+02 0.14989613E-01-0.13985000E-05    3
-0.03969619E-07 0.13882165E-11 0.02148408E+06 0.08004594E+02                   4
HCCO               32387H   1C   2O   1     G  0300.00   4000.00  1000.00      1
 0.06758073E+02 0.02000400E-01-0.02027607E-05-0.10411318E-09 0.01965164E-12    2
 0.01901513E+06-0.09071262E+02 0.05047965E+02 0.04453478E-01 0.02268282E-05    3
-0.14820945E-08 0.02250741E-11 0.01965891E+06 0.04818439E+01                   4
CH2CHCH2           82489C   3H   5          G  0300.00   4000.00  1000.00      1
 0.09651539E+02 0.08075596E-01-0.07965424E-05-0.04650696E-08 0.08603281E-12    2
 0.15300955E+05-0.02686773E+03 0.02276486E+02 0.01985564E+00 0.11238421E-05    3
-0.10145757E-07 0.03441342E-10 0.01789496E+06 0.13725151E+02                   4
CH3CCH2            82489C   3H   5          G  0300.00   4000.00  1000.00      1
 0.09101018E+02 0.07964167E-01-0.07884945E-05-0.04562036E-08 0.08529212E-12    2
 0.02670680E+06-0.02150559E+03 0.03385811E+02 0.14045337E-01 0.03204127E-04    3
-0.03824120E-07-0.09053742E-11 0.02909066E+06 0.11266487E+02                   4
CH3CHCH            82489C   3H   5          G  0300.00   4000.00  1000.00      1
 0.09209764E+02 0.07871412E-01-0.07724522E-05-0.04497357E-08 0.08377272E-12    2
 0.02853967E+06-0.02232369E+03 0.03161863E+02 0.15180997E-01 0.02722659E-04    3
-0.05177112E-07 0.05435286E-12 0.03095547E+06 0.11979733E+02                   4
CH2CO             121686C   2H   2O   1     G  0300.00   5000.00  1000.00      1
 0.06038817E+02 0.05804840E-01-0.01920953E-04 0.02794484E-08-0.14588676E-13    2
-0.08583402E+05-0.07657581E+02 0.02974970E+02 0.12118712E-01-0.02345045E-04    3
-0.06466685E-07 0.03905649E-10-0.07632636E+05 0.08673553E+02                   4
HCCOH              32387H   2C   2O   1     G  0300.00   4000.00  1000.00      1
 0.07328324E+02 0.03336416E-01-0.03024705E-05-0.01781106E-08 0.03245168E-12    2
 0.07598258E+05-0.14012140E+02 0.03899465E+02 0.09701075E-01-0.03119309E-05    3
-0.05537732E-07 0.02465732E-10 0.08701190E+05 0.04491874E+02                   4
C3H6              120186C   3H   6          G  0300.00   5000.00  1000.00      1
 0.06732257E+02 0.14908336E-01-0.04949899E-04 0.07212022E-08-0.03766204E-12    2
-0.09235703E+04-0.13313348E+02 0.14933071E+01 0.02092517E+00 0.04486794E-04    3
-0.16689121E-07 0.07158146E-10 0.10748264E+04 0.16145340E+02                   4
C2H2OH HCCO TRAN  121196H   3C   2O   1    0G   300.000  3000.000 1000.00      1
 0.57206843E+01 0.10704185E-01-0.50358494E-05 0.11324499E-08-0.10086621E-12    2
 0.12849424E+05-0.47081776E+01 0.81498282E-01 0.31640644E-01-0.34085361E-04    3
 0.18978838E-07-0.41950165E-11 0.14060783E+05 0.22908977E+02                   4
CH2HCO            110393O   1H   3C   2     G  0300.00   5000.00  1000.00      1
 0.05975670E+02 0.08130591E-01-0.02743624E-04 0.04070304E-08-0.02176017E-12    2
 0.04903218E+04-0.05045251E+02 0.03409062E+02 0.10738574E-01 0.01891492E-04    3
-0.07158583E-07 0.02867385E-10 0.15214766E+04 0.09558290E+02                   4
CH3CO             120186C   2H   3O   1     G  0300.00   5000.00  1000.00      1
 0.05612279E+02 0.08449886E-01-0.02854147E-04 0.04238376E-08-0.02268403E-12    2
-0.05187863E+05-0.03274949E+02 0.03125278E+02 0.09778220E-01 0.04521448E-04    3
-0.09009462E-07 0.03193717E-10-0.04108507E+05 0.11228854E+02                   4
CO2               121286C   1O   2          G  0300.00   5000.00  1000.00      1
 0.04453623E+02 0.03140168E-01-0.12784105E-05 0.02393996E-08-0.16690333E-13    2
-0.04896696E+06-0.09553959E+01 0.02275724E+02 0.09922072E-01-0.10409113E-04    3
 0.06866686E-07-0.02117280E-10-0.04837314E+06 0.10188488E+02                   4
CH3HCO            120186C   2O   1H   4     G  0300.00   5000.00  1000.00      1
 0.05868650E+02 0.10794241E-01-0.03645530E-04 0.05412912E-08-0.02896844E-12    2
-0.02264568E+06-0.06012946E+02 0.02505695E+02 0.13369907E-01 0.04671953E-04    3
-0.11281401E-07 0.04263566E-10-0.02124588E+06 0.13350887E+02                   4
CH3O2             BUR95 H   3C   1O   2    0G   200.000  6000.000  1000.000    1
 0.66812963E 01 0.80057271E-02-0.27188507E-05 0.40631365E-09-0.21927725E-13    2
 0.52621851E 03-0.99423847E 01 0.20986490E 01 0.15786357E-01 0.75683261E-07    3
-0.11274587E-07 0.56665133E-11 0.20695879E 04 0.15007068E 02 0.33715510E+04    4
CH3OOH            BUR95 H   4C   1O   2   00G   200.000  6000.000  1000.000    1
 0.61600316E+01 0.10239957E-01-0.36101507E-05 0.57550301E-09-0.34178147E-13    2
-0.17654526E+05-0.61911544E+01 0.49652507E+01 0.92343510E-03 0.34455956E-04    3
-0.44469600E-07 0.17456120E-10-0.16726970E+05 0.29880275E+01-0.14980760E+05    4
C4H               121686C   4H   1          G  0300.00   5000.00  1000.00      1
 0.06242882E+02 0.06193682E-01-0.02085931E-04 0.03082203E-08-0.16364826E-13    2
 0.07568019E+06-0.07210806E+02 0.05023247E+02 0.07092375E-01-0.06073762E-07    3
-0.02275752E-07 0.08086994E-11 0.07623812E+06-0.06942594E+00                   4
C4H2              121686C   4H   2          G  0300.00   5000.00  1000.00      1
 0.09031407E+02 0.06047252E-01-0.01948788E-04 0.02754863E-08-0.13856080E-13    2
 0.05294735E+06-0.02385067E+03 0.04005191E+02 0.01981000E+00-0.09865877E-04    3
-0.06635158E-07 0.06077413E-10 0.05424065E+06 0.01845736E+02                   4
H2CCCCH            82489C   4H   3          G  0300.00   4000.00  1000.00      1
 0.11314095E+02 0.05014414E-01-0.05350444E-05-0.02825309E-08 0.05403279E-12    2
 0.05181211E+06-0.03062434E+03 0.06545799E+02 0.12424768E-01 0.05603226E-05    3
-0.05631141E-07 0.16652183E-11 0.05352502E+06-0.04264082E+02                   4
HCCHCCH            82489C   4H   3          G  0300.00   4000.00  1000.00      1
 0.10752738E+02 0.05381153E-01-0.05549637E-05-0.03052266E-08 0.05761740E-12    2
 0.06121419E+06-0.02973025E+03 0.04153881E+02 0.01726287E+00-0.02389374E-05    3
-0.10187000E-07 0.04340504E-10 0.06338070E+06 0.06036506E+02                   4
CH2CHCCH           82489C   4H   4          G  0300.00   4000.00  1000.00      1
 0.10697773E+02 0.06982014E-01-0.06567747E-05-0.03884517E-08 0.07200946E-12    2
 0.03034803E+06-0.03128430E+03 0.03233893E+02 0.01865634E+00 0.12703205E-05    3
-0.09410096E-07 0.02956110E-10 0.03301097E+06 0.09922676E+02                   4
CH2CHCCH2          82489C   4H   5          G  0300.00   4000.00  1000.00      1
 0.11997762E+02 0.07990580E-01-0.08098172E-05-0.04568733E-08 0.08636911E-12    2
 0.03228493E+06-0.03528494E+03 0.03879443E+02 0.01997663E+00 0.01872777E-04    3
-0.09306953E-07 0.02386116E-10 0.03526859E+06 0.09842152E+02                   4
CH2CHCHCH          82489C   4H   5          G  0300.00   4000.00  1000.00      1
 0.12865971E+02 0.07943369E-01-0.08626466E-05-0.04655635E-08 0.08951131E-12    2
 0.03783552E+06-0.04182502E+03 0.02995240E+02 0.02288456E+00 0.01975471E-04    3
-0.11482454E-07 0.03197823E-10 0.04142218E+06 0.12894539E+02                   4
CH2CHCHCH2        120189C   4H   6          G  0300.00   4000.00  1000.00      1
 0.12544366E+02 0.09596525E-01-0.09187012E-05-0.05429640E-08 0.10053636E-12    2
 0.08597330E+05-0.04217450E+03 0.01931624E+02 0.02479030E+00 0.03018071E-04    3
-0.11546856E-07 0.02586623E-10 0.12554682E+05 0.01701999E+03                   4
OCHCHO            120596H   2C   2O   2    0G   300.000  3000.000 1000.00      1
 0.49087462E+01 0.13182673E-01-0.71416730E-05 0.18461316E-08-0.18525858E-12    2
-0.27116386E+05 0.59148768E+00 0.25068862E+01 0.18899139E-01-0.10302623E-04    3
 0.62607508E-09 0.88114253E-12-0.26427374E+05 0.13187043E+02                   4
C5H2               20587C   5H   2          G  0300.00   5000.00  1000.00      1
 0.11329175E+02 0.07424056E-01-0.02628188E-04 0.04082541E-08-0.02301332E-12    2
 0.07878706E+06-0.03617117E+03 0.03062321E+02 0.02709998E+00-0.10091697E-04    3
-0.12727451E-07 0.09167219E-10 0.08114969E+06 0.07071078E+02                   4
H2CCCCCH          101993H   3C   5          G  0300.00   4000.00  1400.00      1
 0.14407361E+02 0.04424058E-01-0.03618244E-05-0.02456408E-08 0.04327859E-12    2
 0.05896103E+06-0.04775144E+03 0.07441420E+02 0.15851654E-01-0.02219895E-04    3
-0.04928037E-07 0.01984559E-10 0.06162266E+06-0.09047891E+02                   4
HCCCHCCH          101993H   3C   5          G  0300.00   4000.00  1400.00      1
 0.14122474E+02 0.04593411E-01-0.03738175E-05-0.02574328E-08 0.04539160E-12    2
 0.06249257E+06-0.04722335E+03 0.06854796E+02 0.01699404E+00-0.02582284E-04    3
-0.05488764E-07 0.02281480E-10 0.06515364E+06-0.07133854E+02                   4
C5H5              101993H   5C   5          G  0300.00   4000.00  1400.00      1
 0.15310937E+02 0.07473806E-01-0.05837457E-05-0.04386651E-08 0.07696839E-12    2
 0.02525889E+06-0.05951593E+03 0.10073161E+01 0.03189880E+00-0.04748189E-04    3
-0.11023903E-07 0.04584680E-10 0.03047390E+06 0.01934167E+03                   4
H2C4O             120189H   2C   4O   1     G  0300.00   4000.00  1000.00      1
 0.10268878E+02 0.04896164E-01-0.04885080E-05-0.02708566E-08 0.05107013E-12    2
 0.02346902E+06-0.02815985E+03 0.04810971E+02 0.13139988E-01 0.09865073E-05    3
-0.06120720E-07 0.16400028E-11 0.02545803E+06 0.02113424E+02                   4
C6H2              121686C   6H   2          G  0300.00   5000.00  1000.00      1
 0.12756519E+02 0.08034381E-01-0.02618215E-04 0.03725060E-08-0.01878850E-12    2
 0.08075469E+06-0.04041262E+03 0.05751085E+02 0.02636719E+00-0.11667596E-04    3
-0.10714498E-07 0.08790297E-10 0.08262012E+06-0.04335532E+02                   4
C6H4              111293H   4C   6          G  0300.00   4000.00  1000.00      1
 0.14016253E+02 0.08242769E-01-0.08099663E-05-0.04654132E-08 0.08748122E-12    2
 0.04410395E+06-0.05139376E+03 0.15200236E+01 0.02876611E+00 0.14177245E-05    3
-0.16505889E-07 0.05873156E-10 0.04844894E+06 0.01719033E+03                   4
C6H5               82489C   6H   5          G  0300.00   4000.00  1000.00      1
 0.15775887E+02 0.09651109E-01-0.09429416E-05-0.05469111E-08 0.10265216E-12    2
 0.03302698E+06-0.06176280E+03 0.11435567E+00 0.03627324E+00 0.11582856E-05    3
-0.02196964E-06 0.08463556E-10 0.03836054E+06 0.02380117E+03                   4
C6H6               20387C   6H   6          G  0300.00   5000.00  1000.00      1
 0.12910740E+02 0.01723296E+00-0.05024210E-04 0.05893497E-08-0.01947521E-12    2
 0.03664511E+05-0.05002699E+03-0.03138012E+02 0.04723103E+00-0.02962207E-04    3
-0.03262819E-06 0.01718691E-09 0.08890031E+05 0.03657573E+03                   4
C6H5O              82489C   6H   5O   1     G  0300.00   4000.00  1000.00      1
 0.01822638E+03 0.10039851E-01-0.09915668E-05-0.05672804E-08 0.10683716E-12    2
-0.02620846E+05-0.07361390E+03 0.11074965E+01 0.03956945E+00 0.08497295E-05    3
-0.02436311E-06 0.09650659E-10 0.03159672E+05 0.01973496E+03                   4
C6H5C2H           102494H   6C   8    0    0G   300.000  4000.000 1000.00      1
 0.11752088E+02 0.30158901E-01-0.13680864E-04 0.29020322E-08-0.23512366E-12    2
 0.34440183E+05-0.38501116E+02-0.72124976E+01 0.99088942E-01-0.11594625E-03    3
 0.76501033E-07-0.21534190E-10 0.38888275E+05 0.55496023E+02                   4
C5H4O                   C   5H   4O   1     G   300.00   5000.00  1387.000     1
 1.32914560E+01 1.29138911E-02-4.55514943E-06 7.22080955E-10-4.25104153E-14    2
-4.57568023E+03-5.01428656E+01-2.97337632E+00 5.10458345E-02-3.85513684E-05    3
 1.44491809E-08-2.16384604E-12 1.01932661E+03 3.70964885E+01                   4
C5H4OH                  C   5H   5O   1     G   300.00   5000.00  1411.000     1
 1.53245379E+01 1.23087049E-02-4.04243988E-06 6.11260166E-10-3.48376790E-14    2
-7.00902608E+02-5.74376976E+01-4.21524798E+00 6.79625301E-02-6.49157951E-05    3
 3.06252731E-08-5.61255626E-12 4.96710972E+03 4.37575334E+01                   4
C5H5O                   C   5H   5O   1     G   300.00   5000.00  1391.000     1
 1.48359646E+01 1.40333516E-02-4.91531955E-06 7.75582831E-10-4.55153340E-14    2
 1.45580753E+04-5.73214147E+01-2.82370598E+00 5.68195777E-02-4.47287341E-05    3
 1.76910566E-08-2.80968491E-12 2.04947862E+04 3.69083876E+01                   4
C5H6               20387C   5H   6          G  0300.00   5000.00  1000.00      1
 0.09689815E+02 0.01838262E+00-0.06264884E-04 0.09393377E-08-0.05087708E-12    2
 0.11021242E+05-0.03122908E+03-0.03196739E+02 0.04081361E+00 0.06816505E-05    3
-0.03137459E-06 0.15772230E-10 0.15290676E+05 0.03869938E+03                   4
C5H5(L)           BurcatC   5H   5    0    0G   300.000  5000.000 1402.000    01
 1.38816308E+01 1.14454546E-02-3.83729159E-06 5.88208430E-10-3.38379570E-14    2
 4.27127349E+04-4.87035050E+01-8.60045246E-01 5.18320271E-02-4.67951024E-05    3
 2.14122502E-08-3.87182913E-12 4.71932361E+04 2.82849534E+01                   4
C3H                     C   3H   1    0    0G   300.000  5000.000 1379.000    01
 7.41161046E+00 2.32474455E-03-8.31651522E-07 1.33054187E-10-7.88291041E-15    2
 7.93027328E+04-1.14426814E+01 4.09671975E+00 1.04459122E-02-8.62423108E-06    3
 3.61439580E-09-6.14840960E-13 8.04218661E+04 6.23690786E+00                   4
C6H5OH     3/24/95NASA85C   6H   6O   1    0G   300.000  5000.000 1000.000     1
 6.92687855E+00 3.62810564E-02-2.00924422E-05 5.47100509E-09-5.91899353E-13    2
-1.57311164E+04-1.29922819E+01-4.96342676E+00 7.59185430E-02-6.65786995E-05    3
 2.64847633E-08-2.86718827E-12-1.29625171E+04 4.63129156E+01                   4
FULVENE                 C   6H   6    0    0G   300.000  3000.000 1000.00      1
 0.55099388E+01 0.33879936E-01-0.17737071E-04 0.44769284E-08-0.44127372E-12    2
 0.24921871E+05-0.67757489E+01-0.56096307E+01 0.73064757E-01-0.70326923E-04    3
 0.36580449E-07-0.80201931E-11 0.27468885E+05 0.48339178E+02                   4
C6H7   RAS01/19/95 TSANGC   6H   7    0    0G   300.000  2500.000 1000.000     1
 2.51495534E+00 4.32714617E-02-2.43043200E-05 6.66824985E-09-7.24113668E-13    2
 2.21043349E+04 8.73039795E+00-4.95929904E+00 6.11287329E-02-3.00150127E-05    3
-6.44910254E-09 7.71986166E-12 2.41440610E+04 4.76202502E+01                   4
C6H813 RAS12/14/94 THERMC   6H   8          G   300.000  5000.000 1396.000    01
 1.53625259E+01 2.08675112E-02-7.19203048E-06 1.12251633E-09-6.53733380E-14    2
 4.62118283E+03-6.26703913E+01-5.81337476E+00 7.22248431E-02-5.52161741E-05    3
 2.16975324E-08-3.46304555E-12 1.17578006E+04 5.03398935E+01                   4
C6H814 RAS12/14/94 THERMC   6H   8          G   300.000  5000.000 1394.000    01
 1.50866863E+01 2.11483961E-02-7.29888357E-06 1.14020521E-09-6.64432988E-14    2
 5.02632710E+03-6.19776093E+01-5.34206341E+00 6.96903834E-02-5.16349220E-05    3
 1.96729152E-08-3.05521699E-12 1.20241900E+04 4.74226109E+01                   4
C7H7               WARTZC   7H   7          G  0300.00   4000.00  1000.00      1
 0.14765557E+02 0.21834318E-01-0.74497539E-05 0.11167121E-08-0.60388706E-13    2
 0.16991187E+05-0.56287125E+02-0.20902777E+01 0.53650826E-01-0.37096879E-05    3
-0.38106585E-07 0.20462368E-10 0.22393387E+05 0.34406097E+02                   4
C7H8               WARTZC   7H   8          G  0300.00   4000.00  1000.00      1
 0.13957725E+02 0.24616607E-01-0.83795358E-05 0.12537165E-08-0.67675520E-13    2
-0.10295066E+04-0.52245728E+02-0.25368824E+01 0.52898869E-01 0.14038515E-05    3
-0.40762323E-07 0.20377519E-10 0.44778477E+04 0.37415115E+02                   4
C7H8O             EBG   C   7H   8O   1     G   300.00   5000.00  1386.000     1
 1.91919825E+01 2.19714408E-02-7.42997382E-06 1.14635969E-09-6.62717108E-14    2
-2.18095070E+04-7.82183334E+01-4.10842859E+00 7.49994656E-02-5.21053820E-05    3
 1.75996769E-08-2.28346014E-12-1.37101009E+04 4.71979266E+01                   4
A1YNE*     2/27/92      C   8H   5    0    0G   300.000  5000.000 1391.000    01