 ! ************************************************************************
! ************************************************************************
! ******************* For further documentation of mechanism:  ***********
! ******************* see references below and their citations ***********
! ************************************************************************
! ************************************************************************
!
!
 ELEMENTS
O  H  C  N HE AR  
 END  
!
 SPECIES    
NH3 NO2 NO N2O
H2 O2 O3 H O OH HO2 H2O H2O2 
!
CO CO2 CH2O HCO C2H5OH
CH3OCHO CH3OH 
CH3OCH3 C2H2
!
!***CH4***
CH3 CH4 CH2 CH2(S) CH C
CH3O CH2OH 
!
!***C2***
C2 C2H2 C2H C2H3 C2H4 C2H5 C2H6
CH2CO HCCO C2O 
CH2HCO C2H2OH  CH3HCO CH3CO HCCOH
C2H5CHO C2H5CO
CHCHO H2CC CH2CHOO CH2CHO
!
!
!***C3***
C3H2 C3H4 H2CCCH
!
!***C4***
C4H2
!
!***cyanides***
!    
HCN HNC CN HOCN HCNO NCO H2CN HCNH CH3CN CH2CN NCCN NCN
C2N2    
!
!***DME***
!
CH3OCH2 CH3O2
CH3OCH2O2H O2CH2OCH2O2H HO2CH2OCHO  
CH3OCH2O CH3OCH2O2 CH2OCH2O2H CH3OCH2OH CH3OOH 
CH3NO CH3NO2 H2CNO2
!
!***Ethanol***
!
C2H5OH C2H4OH CH3CHOH CH3CH2O 
!
!***Methyl formate***
!
CH2OCHO CH3OCO 
HCOOH CH3CO2CH3 CH3OCOO2H OCH2O2H OCH2OCO   
CH3CH2OCHO OCH2OCHO OOCH2OCHO CH2OOH 
CH3OCOO CH3OCOOO HOOCH2OCO CH2OCOOOH 
OCHOCOOOH OOCH2OCOOOH HOOCH2OCOOO CHOOCO
!
!***DMM***
CH3OCH2OCH3 CH3OCH2OCH2 CH3OCHOCH3
CH3O2H
!
!***Glyoxal***
OCHCHO HOCH(OO)CHO HOCH(OOH)CHO OCHCO HOCHO
!
!Acid formic
HOCH2OCO  HOCH2O OCHO HOCHOH  HOCO 
!
NO NH3
NH2 NH N NNH N2H4 N2H3 tHNNH cHNNH H2NN 
NH2OH H2NO HNOH HNO HON HONO HNO2 NO3 HONO2 
H2NCO HNCO N2H2 CH3ONO CH3ONO2
!
AR HE N2
!
END
!
!

 REACTIONS
!
HOCO+NO=CO2+HNO                      5.0E09   1.000       0 !         
!
HOCO+NH2=CO2+NH3                     2.0E13   0.000       0 !
!
H2NCO(+M)=CO+NH2(+M)                  5.9E12   0.000   25000 !           
 LOW  / 1.0E14 0.00 21700/
!
H2NCO+H=HNCO+H2                       3.0E13   0.000       0 !           
!
H2NCO+O=HNCO+OH                       3.0E13   0.000       0 !           
!
H2NCO+OH=HNCO+H2O                     3.0E13   0.000       0 !          
!
! *****************************************************************************
!    CH2O subset                                                              *
! *****************************************************************************
! 
CH2O(+M)=HCO+H(+M)                   8.0E15   0.000   87726 ! 
 LOW /                               1.3E36  -5.500   93932/        
!
CH2O(+M)=CO+H2(+M)                   3.7E13   0.000   71969 ! 
 LOW /                               4.4E38  -6.100   93932/  
!
!CH2O+H=HCO+H2                        5.9E03   3.130    1510 ! 
!
CH2O+H=HCO+H2 	                     1.4E23  -2.355   17519 ! 1 atm
 PLOG/0.04                           7.4E23  -2.732   16379/ 
 PLOG/1	                             1.4E23  -2.355   17519/
 PLOG/10                             7.3E23  -2.665   17634/   
 DUPLICATE                                                  !
CH2O+H=HCO+H2 	                     1.6E15  -0.444    5682 ! 1 atm
 PLOG/0.04                           2.1E10   1.057    3720/ !
 PLOG/1                              1.6E15  -0.444    5682/ !
 PLOG/10                             4.2E09   1.294    3591/ !
 DUPLICATE                                                  !
CH2O+H=H+CO+H2                       5.1E07   2.182   11524	
 PLOG/0.04                           7.2E08   1.903   11733/
 PLOG/1                              5.1E07   2.182   11524/
 PLOG/10	                     1.1E09   1.812   13163/
!
!CH2O+O=HCO+OH                        4.2E11   0.570    2760 ! 
!
CH2O+O=HCO+OH                        5.6E31  -5.189   19968  
 DUPLICATE
CH2O+O=HCO+OH                        1.4E15  -0.530    4011 
 DUPLICATE
CH2O+O=H+CO+OH                       2.5E21  -1.903   22674
!
CH2O+OH=HCO+H2O	                     1.9E09    1.256    -302
! PLOG/0.04                           3.6E09    1.167    -206/  !
! PLOG/1	                      1.9E09    1.256    -302/  !
! PLOG/10                             1.1E09    1.330    -392/  !
CH2O+OH=H+CO+H2O                     7.2E10    0.892    9310	
! PLOG/0.04                           7.0E10    0.911    8646/
! PLOG/1                              7.2E10    0.892    9310/
! PLOG/10                             8.4E10    0.879    9843/
!
CH2O+HO2=HCO+H2O2                    4.4E08   1.298   12129 ! refit
CH2O+HO2=H+CO+H2O2                   2.5E14   0.027   30120
!
CH2O+CH3=HCO+CH4                     3.2E01   3.360    4310 
 DUPLICATE
CH2O+CH3=HCO+CH4                    -1.9E11   0.887   24237 
 DUPLICATE
CH2O+CH3=H+CO+CH4                    1.9E11   0.887   24224
!
CH2O+O2=HCO+HO2	                     1.8E16   -0.639   45400 ! refit
DUPLICATE
CH2O+O2=HCO+HO2                      6.6E08    1.360   37324 ! refit
DUPLICATE
CH2O+O2=H+CO+HO2                     1.4E15    0.027   56388 
!
HCO(+M)=H+CO(+M)                     4.9E16  -0.930   19724 !    					
 LOW/                                7.4E21  -2.360   19383/								
 TROE/ 0.103 139 10900 4550/								
 N2/1.5/ HE/1.3/ O2/1.5/ CO/1.5/ H2/2/  CO2/3./ H2O/15./
!
HCO+H=CO+H2                          1.1E14   0.000       0 ! 
!
HCO+O=CO+OH                          3.0E13   0.000       0 ! 
!
HCO+O=CO2+H                          3.0E13   0.000       0 ! 
!
HCO+OH=CO+H2O                        1.1E14   0.000       0 ! 
!
HCO+O2=CO+HO2                        6.9E06   1.900   -1369 ! 
!
HCO+HO2=CO2+OH+H                     3.0E13   0.000       0 !
!
HCO+HCO=CO+CH2O                      2.7E13   0.000       0 ! 
!
!
! *****************************************************************************
!    H2/O2 subset                                                             *
! *****************************************************************************
!
H+O2=O+OH                            1.0E14   0.000   15286 !
!
H+H+N2=H2+N2                         5.4E18  -1.300       0 ! 
H+H+H2=H2+H2                         1.0E17  -0.600       0 ! 
H+H+H2O=H2+H2O                       1.0E19  -1.000       0 ! 
!
O+H2=OH+H                            3.8E12   0.000    7948 ! 
 DUPLICATE                                                  !
O+H2=OH+H                            8.8E14   0.000   19175 ! 
 DUPLICATE                                                  !
!
OH+H2=H+H2O                          2.2E08   1.510    3430 ! 
!
OH+OH=O+H2O                          1.4E07   1.689   -1167 !
 DUPLICATE
OH+OH=O+H2O                         -2.7E10   0.567       0 !
 DUPLICATE
!
H2+M=H+H+M                           4.6E19  -1.400  104380 !
 H2/2.5/ H2O/12/ AR/0/ 
H2+AR=H+H+AR                         5.8E18  -1.100  104380 !
!
H+O+M=OH+M                           4.7E18  -1.000       0 !
 H2/2.5/  H2O/12/ AR/0.75/ CO/1.9/  CO2/3.8/
!                       
O+O+M=O2+M                           1.9E13   0.000   -1788 ! 
 H2/2.5/ H2O/12/ AR/0/ CO/1.9/ CO2/3.8/
!
H2O+M = H+OH+M                       6.1E27  -3.322  120790 !
 H2/3/ H2O/0/ N2/2/ O2/1.5/ CO/1.9/ CO2/3.8/
!
H2O+H2O = H+OH+H2O                   1.0E26  -2.440  120180 !
!                        
H+O2(+M)=HO2(+M)                     4.7E12   0.440       0 !
 LOW/6.366E20 -1.72  5.248E02/
 TROE/0.5  1E-30  1E30/
 H2/2/ H2O/14/ O2/0.78/ CO/1.9/ CO2/3.8/ AR/0.67/ 
!
HO2+H=H2+O2                          2.8E06   2.090   -1451 !
! 
HO2+H=OH+OH                          7.1E13   0.000     295 !
!
!HO2+H=OH+OH                          8.4E13   0.000     400 
!
!HO2+H=H2O+O                          1.4E12   0.000       0 ! 
!
HO2+O=O2+OH                          2.9E10   1.000    -724 !
!
HO2+OH = H2O+O2                      1.9E20  -2.490     584 !
 DUPLICATE
HO2+OH = H2O+O2                      1.2E09   1.240   -1310 !
 DUPLICATE
!
!                                               
HO2+HO2=H2O2+O2                      1.9E-2   4.120  -4960 ! #
!
HO2+HO2=O2+OH+OH                     6.4E17  -1.540   8540 ! #
!
H2O2(+M) = OH+OH(+M)                 2.0E12   0.900   48749 !
 LOW/                                2.5E24  -2.300   48749/
 TROE/0.43 1E-30 1E30/
 AR/1/ H2O/7.5/ CO2/1.6/ N2/1.5/ O2/1.2/ H2O2/7.7/ H2/3.7/ CO/2.8/
!
H2O2+H=H2O+OH                        1.0E13   0.000    3580
! 
H2O2+H=HO2+H2                        4.8E13   0.000    7950 !
!
H2O2+O=HO2+OH                        9.6E06   2.000    3970 ! 
!
H2O2+OH=HO2+H2O                      1.7E12   0.000     318 !
   DUPLICATE
H2O2+OH=HO2+H2O                      7.6E13   0.000    7270 !
   DUPLICATE
!
!                               
H+O2+H=H2+O2                         8.8E22  -1.835     800 ! #
H+O2+H=OH+OH                         4.0E22  -1.835     800 ! #
H+O2+O=OH+O2                         7.4E22  -1.835     800 ! #
H+O2+OH=H2O+O2                       2.6E22  -1.835     800 ! #
!
! *****************************************************************************
!    CO/CO2 subset                                                            *
! *****************************************************************************
!
CO+O(+M)=CO2(+M)                     1.8E10   0.000    2384 ! 
 LOW  /                              1.4E24  -2.790    4191/                                  ! 
 TROE /1.0 1E-30 1E30 1E30/                                 ! 
 H2/2.5/ H2O/12/ CO/1.9/ CO2/3.8/                           !
!
CO+OH=CO2+H                          8.7E05   1.730    -685 ! 
 PLOG/  0.01315                      2.1E05   1.900   -1064/
 PLOG/  0.1315                       2.5E05   1.880   -1043/
 PLOG/  1.315                        8.7E05   1.730    -685/				
 PLOG/ 13.158                        6.8E06   1.480      48/
 PLOG/ 131.58                        2.3E07   1.350     974/
!
CO+OH=HOCO                           2.0E20  -3.500    1309 !  
 PLOG/ 0.013158                      1.7E15  -2.680     859/						  
 PLOG/ 0.13158                       5.9E18  -3.350     887/					
 PLOG/ 1.3158	                     2.6E20  -3.500    1309/						      
 PLOG/ 13.158	                     7.1E20  -3.320    1763/					
 PLOG/ 131.58                        1.1E20  -2.780    2056/	
!
CO+HO2=CO2+OH                        1.6E05   2.180   17943 !
! 
CO+O2=CO2+O                          4.7E12   0.000   60500 ! 
! 
CO+H2O2=HOCO+OH                      3.6E04   2.500   28660 ! 
!
HOCO(+M)=CO2+H(+M)                   8.2E11   0.413   35335 !
 LOW  /                              6.0E26  -3.148   37116 /                               !            
 TROE / 0.39 1.0E-30 1.0E30 /                               ! Fc = 0.39
!
HOCO(+M)=CO+OH(+M)           5.9E12    0.53  33980
LOW/2.20E23  -1.83   35260/
!
HOCO+H=CO2+H2                        3.1E17  -1.3475    555 !            
!
HOCO+H=CO+H2O                        6.0E15  -0.525    2125 !            
!
HOCO+O=CO2+OH                        9.0E12   0.000       0 !            
!
HOCO+OH=CO2+H2O                      4.6E12   0.000     -89 ! 
 DUPLICATE                                                  !
HOCO+OH=CO2+H2O                      9.5E06   2.000     -89 ! 
 DUPLICATE                                                  !
!
HOCO+HO2=CO2+H2O2                    4.0E13   0.000       0 ! 
!
HOCO+O2=CO2+HO2                      4.0E09   1.000       0 !         
!
! *****************************************************************************
!    CH4/CH3/CH2/CH/C Subset                                                               *
! *****************************************************************************
!  
CH3+H(+M)=CH4(+M)                    2.1E14   0.000       0 ! 
   LOW  /6.467E23 -1.8 0/                                    ! 
   TROE /0.6376 1E-30 3230 1E30/                             ! 
   CH4/1.9/ C2H6/4.8/                                        !
 CH4+H=CH3+H2                         4.1E03   3.156    8755 ! 
 CH4+O=CH3+OH                         4.4E05   2.500    6577 ! 
 CH4+OH=CH3+H2O                       1.0E06   2.182    2506 ! 
 CH4+HO2=CH3+H2O2                     4.7E04   2.500   21000 ! 
!
CH3+H=CH2+H2                         9.00E13   0.0     15100 !
CH3+O=CH2O+H                         8.0E13    0.0         0 !
CH3+OH=CH2+H2O                       7.50E06   2.0      5000 !  
!
 CH3+HO2=CH4+O2                       2.5E08   1.250   -1630 !  
 CH3+HO2=CH3O+OH                      2.0E13   0.000    1075 ! 
CH3+O2=CH3O+O                        2.87E13   0.0     30481 !
CH3+O2=CH2O+OH                       1.85E12   0.0     20315 !
CH3+CH3(+M)=C2H6(+M)                 2.1E16   -0.97      620 ! 
  LOW /1.26E50 -9.67 6220/
  TROE/ 0.5325 151 1038 4970 /
   N2/1.43/ H2O/8.59/
CH3+HCO=CH4+CO                       1.2E14    0.0         0 ! 
!
CH2+H=CH+H2                          1.00E18  -1.56        0 ! 
CH2+O=CO+H+H                         5.00E13   0.00        0 ! 
CH2+O=CO+H2                          3.00E13   0.00        0 !
CH2+OH=CH+H2O                        1.13E7    2.00     3000 !
CH2+OH=CH2O+H                        2.50E13   0.00        0 ! 
CH2+O2=CO+H2O                        2.20E22  -3.3      2867 ! 
CH2+O2=CO2+H+H                       3.3E21   -3.3      2867 !
CH2+O2=CH2O+O                        3.29E21  -3.3      2867 !
CH2+O2=CO2+H2                        2.63E21  -3.3      2867 !
CH2+O2=CO+OH+H                       1.64E21  -3.3      2867 !
CH2+CO2=CO+CH2O                      1.10E11   0.00     1000 !
CH2+CH4=CH3+CH3                      4.3E12    0.0     10030 !
CH2+CH3=C2H4+H                       4.20E13   0.00        0 ! 
CH2+CH2=C2H2+H+H                     4.00E13   0.00        0 !
CH2+C2H2=H2CCCH+H                    1.20E13   0.00     6600 ! 
CH2+HCCO=C2H3+CO                     3.00E13   0.00        0 !
!
CH2(S)+M=CH2+M                       1.00E13   0.00        0 !
    H/20/ H2O/3/ N2/0.0/ AR/0.0/
CH2(S)+AR=CH2+AR                     1.45E13   0.0       884 !
CH2(S)+N2=CH2+N2                     1.26E13   0.0       430 !
CH2(S)+H=CH+H2                       3.0E13    0.0         0 !
CH2(S)+H=CH2+H                       2.00E14   0.00        0 ! 
CH2(S)+H2=CH3+H                      7.2E13    0.0         0 !
CH2(S)+H2O=CH3+OH                    3.0E15   -0.6         0 !
CH2(S)+H2O=CH2+H2O                   3.0E13    0.0         0 ! 
CH2(S)+O=CO+H+H                      3.0E13    0.0         0 !    
CH2(S)+OH=CH2O+H                     3.0E13    0.0         0 !
CH2(S)+O2=CO+OH+H                    7.0E13    0.0         0 !
CH2(S)+CO2=CH2O+CO                   3.0E12    0.0         0 !
CH2(S)+CH4=CH3+CH3                   4.3E13    0.0         0 !
CH2(S)+CH3=C2H4+H                    2.0E13    0.0         0 !
CH2(S)+C2H6=CH3+C2H5                 1.2E14    0.0         0 !
CH2(S)+CH2CO=C2H4+CO                 1.6E14    0.0         0 ! 
!
CH+H=C+H2                            1.5E14    0.0         0 !
CH+O=CO+H                            5.7E13    0.0         0 !
CH+OH=HCO+H                          3.0E13    0.0         0 !
CH+OH=C+H2O                          4.0E7     2.0      3000 !
CH+O2=HCO+O                          3.30E13   0.0         0 ! 
CH+H2O=CH2O+H                        5.72E12   0.0      -755 !
CH+CO2=HCO+CO                        3.4E12    0.0       686 !
CH+CH2O=CH2CO+H                      9.5E13    0.0      -517 !
CH+C2H2=C3H2+H                       1.0E14    0.0         0 !
CH+CH4=C2H4+H                        6.00E13   0.0         0 ! 
CH+CH3=C2H3+H                        3.00E13   0.0         0 ! 
CH+CH2=C2H2+H                        4.00E13   0.0         0 !
CH+HCCO=C2H2+CO                      5.0E13    0.0         0 !
!
C+OH=CO+H                            5.0E13    0.0         0 ! 
C+O2=CO+O                            2.0E13    0.0         0 !
C+CH3=C2H2+H                         5.0E13    0.0         0 !
C+CH2=C2H+H                          5.0E13    0.0         0 !
!
!
!
!
!*******************************************************
!    CH3OH/CH2OH/CH3O Subset  
!*******************************************************
 CH3OH(+M)=CH3+OH(+M)                 2.1E18  -0.6148  92540 ! 
   LOW  /2.60E49 -8.80 101500/                               ! 
   TROE /0.7656 1910 59.51 9374/                                
 CH3OH+H=CH2OH+H2                     6.6E04   2.728    4449 ! 
 CH3OH+H=CH3O+H2                      4.1E04   2.658    9221 ! 
 CH3OH+O=CH2OH+OH                     2.1E13   0.000    5305 ! 
 CH3OH+O=CH3O+OH                      3.7E12   0.000    5305 ! 
 CH3OH+OH=CH2OH+H2O                   1.5E08   1.4434    113 ! 
 CH3OH+OH=CH3O+H2O                    2.7E07   1.4434    113 ! 
 CH3OH+HO2=CH2OH+H2O2                 3.5E-4   4.850   10346 ! 
 CH3OH+HO2=CH3O+H2O2                  1.5E-3   4.610   15928 ! 
 CH3OH+O2=CH2OH+HO2                   3.6E05   2.270   42760 ! 
!
 CH2OH=CH2O+H                         5.7E34  -6.640   46430 ! 
 CH2OH+H=CH2O+H2                      1.4E13   0.000       0 ! 
 CH2OH+H=CH3+OH                       6.0E12   0.000       0 ! 
 CH2OH+H(+M)=CH3OH(+M)                4.3E15  -0.790       0 ! 
   LOW  /3.844E37 -6.21 1333/                                !
   TROE /0.25 210 1434 1E30/                                 !
 CH2OH+O=CH2O+OH                      6.6E13   0.000    -693 ! 
 CH2OH+OH=CH2O+H2O                    2.4E13   0.000       0 ! 
 CH2OH+HO2=CH2O+H2O2                  1.2E13   0.000       0 ! 
 CH2OH+O2=CH2O+HO2                    7.2E13   0.000    3736 ! 
   DUPLICATE                                                 !
 CH2OH+O2=CH2O+HO2                    2.9E16  -1.500       0 ! 
   DUPLICATE                                                 !
 CH2OH+HCO=CH3OH+CO                   1.0E13   0.000       0 ! 
 CH2OH+HCO=CH2O+CH2O                  1.5E13   0.000       0 ! 
 CH2OH+CH2O=CH3OH+HCO                 5.5E03   2.810    5862 ! 
 CH2OH+CH2OH=CH3OH+CH2O               4.8E12   0.000       0 ! 
 CH2OH+CH3O=CH3OH+CH2O                2.4E12   0.000       0 ! 
 CH2OH+CH4=CH3OH+CH3                  2.2E01   3.100   16227 ! 
! 
 CH3O=CH2O+H                         4.2E107 -29.490   63410 ! 
 CH3O=CH2OH                          5.4E111 -30.460   62690 ! 
 CH3O+H=CH2O+H2                       5.3E13   0.000     745 ! 
 CH3O+H=CH3+OH                        4.6E12   0.000     745 ! 
 CH3O+H(+M)=CH3OH(+M)                 2.4E12   0.515      50 ! 
   LOW  /4.66E41 -7.44 14080/                                !
   TROE /0.7 100 90000 10000/                                !
   N2/1/ H2/2/ H2O/6/ CH4/2/ CO/1.5/ CO2/2/ C2H6/3/          !
 CH3O+O=CH2O+OH                       3.8E12   0.000       0 ! 
 CH3O+OH=CH2O+H2O                     1.8E13   0.000       0 ! 
 CH3O+HO2=CH3OH+O2                    1.4E11   0.000       0 !
 CH3O+O2=CH2O+HO2                     4.8E-1   3.567   -1055 ! 
 CH3O+CO=CH3+CO2                      9.5E25  -4.930    9080 ! 
 CH3O+CH3=CH2O+CH4                    2.4E13   0.000       0 ! 
 CH3O+CH4=CH3OH+CH3                   1.3E14   0.000   15073 ! 
 CH3O+CH2O=CH3OH+HCO                  1.0E11   0.000    2981 ! 
 CH3O+CH3O=CH3OH+CH2O                 6.0E13   0.000       0 ! 
!
! *****************************************************************************
!    C2 subset                                                                *
! *****************************************************************************
!
C2H6+H=C2H5+H2                       5.4E02    3.50      5210 ! 
C2H6+O=C2H5+OH                       3.0E07    2.00      5115 ! 
C2H6+OH=C2H5+H2O                     7.2E6     2.0        864 ! 
C2H6+HO2=C2H5+H2O2                   1.3E13    0.00     20460 ! 
C2H6+O2=C2H5+HO2                     5.0E13    0.0      55000 ! 
C2H6+CH3=C2H5+CH4                    5.5E-1    4.00      8300 !   
!
C2H4+H(+M)=C2H5(+M)                  1.081E12  0.454     1822 ! 
   LOW/1.112E34  -5.0   4448.0/
  TROE/0.5 95.0  95.0    200./
     H2/2/ CO/2/ CO2/3/ H2O/5/
!
C2H5+H(+M)=C2H6(+M)                  5.2E17   -0.99      1580 ! 
  LOW  /  2.0E41 -7.08 6685/
  TROE/  0.8422 125 2219 6882 /
  H2/2/ CO/2/ CO2/3/ H2O/5/ 
C2H5+H=CH3+CH3                       4.9E12    0.35         0 !
C2H5+O=CH3+CH2O                      4.2E13    0.00         0 ! 
C2H5+O=CH3HCO+H                      5.3E13    0.00         0 !
C2H5+O=C2H4+OH                       3.0E13    0.00         0 !          
C2H5+OH=C2H4+H2O                     2.4E13    0.00         0 ! 
C2H5+O2=C2H4+HO2                     1.0E10    0.00     -2190 ! 
C2H5+CH2O=C2H6+HCO                   5.5E03    2.81      5860 ! 
C2H5+HCO=C2H6+CO                     1.2E14    0.00         0 ! 
C2H5+CH3=C2H4+CH4                    1.1E12    0.00         0 ! 
C2H5+C2H5=C2H6+C2H4                  1.5E12    0.00         0 !
!
C2H3+H(+M)=C2H4(+M)                  6.1E12    0.27       280 !   
      LOW /0.98E30 -3.86 3320./
      TROE /0.7820 207.50 2663.00 6095.00/
  N2/1.4/ H2O/7.14/
!
C2H4+M=C2H2+H2+M                     3.50E16   0.00     71500 ! 
      N2/1.5/  H2O/10/
C2H4+H=C2H3+H2                       5.42E14   0.00     14902 !
C2H4+O=CH2HCO+H                      4.7E06    1.88       180 !
C2H4+O2=CH2HCO+OH                    2.0E08    1.500    39000 ! 
C2H4+O2=C2H3+HO2                     4.2E13    0.0      57630 ! 
C2H4+O=CH3+HCO                       8.1E6     1.88       180 !
C2H4+O=CH2CO+H2                      6.8E5     1.88      180  !
C2H4+OH=C2H3+H2O                     2.02E13   0.00      5940 !
C2H4+HO2=CH3HCO+OH                   2.2E12    0.00     17200 !
C2H4+CH3=C2H3+CH4		     5.0E11    0.0      15000 !
!
C2H3+H=C2H2+H2                       4.00E13   0.00         0 ! 
C2H3+O=CH2CO+H                       3.00E13   0.00         0 !
C2H3+OH=C2H2+H2O                     2.0E13    0.00         0 !
C2H3+O2=CH2O+HCO                     4.58E16    -1.39   1015 ! 
C2H3+O2=CH2HCO+O                     3.03E11  -0.29     10.73 !
C2H3+O2=C2H2+HO2                     1.3E6     1.61      -383 !
C2H3+CH2O=C2H4+HCO                   5.4E3     2.81      5860 ! 
C2H3+HCO=C2H4+CO                     9.0E13    0.0          0 ! 
C2H3+CH3=C2H2+CH4                    2.1E13    0.0          0 ! 
C2H3+C2H3=C2H4+C2H2                  6.3E13    0.0          0 ! 
C2H3+CH2=C3H4+H                      3.0E13    0.0          0 ! 
C2H3+C2H=C2H2+C2H2                   3.0E13    0.0          0 !
C2H3+CH=CH2+C2H2		     5.0E13    0.0          0 !
C2H3+C2H3=H2CCCH+CH3	             1.8E13    0.0          0 !   
!
!
!
!**************************
!     C2H2_HIGH PRESSURE 
!*************************
!
C2H2+M=C2H+H+M                       9.1E30  -3.700  127138 ! 
     H2/2/ CO/2/ CO2/3/  H2O/5/  
!
C2H2(+M)=H2CC(+M)		1.80E4   3.510    43300
   LOW  /2.5E15 -0.640 49700/ 
   TROE/0.5  1E-30  1E+30/
C2H2+H(+M)=C2H3(+M)		1.7E10   1.266    2709
   LOW  /6.3E31 -4.664 3780/ 
   TROE/0.7878  -10212  1E-30/
C2H+H2=C2H2+H                   4.1E5    2.390     864
C2H2+O=HCCO+H                   1.4E7    2.000     1900
C2H2+O=CH2+CO                   6.1E6    2.000     1900 
C2H2+O=C2H+OH                   3.2E15  -0.6       15000
!
C2H2+OH=C2H2OH                       3.5E31  -6.200    6635  ! 
 PLOG   / .01                        2.9E64 -18.570   10009. /
 PLOG   / .01                        2.6E33  -7.360    6392. /
 PLOG   / .025                       4.7E59 -16.870    9087. /
 PLOG   / .025                       4.4E32  -7.020    5933. /
 PLOG   / 0.1                        1.2E28  -5.560    3724. /
 PLOG   / 0.1                        6.4E42  -9.960   11737. /
 PLOG   / 1.0                        1.9E44 -11.380    6299. /
 PLOG   / 1.0                        3.5E31  -6.200    6635. / 
 PLOG   / 10.0                       1.5E24  -4.060    3261. /
 PLOG   / 10.0                       4.5E31  -5.920    8761. /
 PLOG   / 100.                       6.2E20  -2.800    2831. /
 PLOG   / 100.                       1.6E29  -4.910    9734. /
!
C2H2+OH=CH3+CO                       1.3E09   0.730    2579 ! 
 PLOG   / .01                        4.8E05   1.680    -330./
 PLOG   / .025                       4.4E06   1.400     227./
 PLOG   / 0.1                        7.7E07   1.050    1115./
 PLOG   / 1.0                        1.3E09   0.730    2579./
 PLOG   / 10.0                       4.3E08   0.920    3736./
 PLOG   / 100.                       8.3E05   1.770    4697./ 
!
C2H2+OH=HCCOH+H                      2.4E06   2.000   12713 ! 
 PLOG  /.01                          2.8E05   2.280   12419./
 PLOG  /.025                         7.5E05   2.160   12547./
 PLOG  /.1                           1.8E06   2.040   12669./
 PLOG  / 1.0                         2.4E06   2.000   12713./
 PLOG  / 10.                         3.2E06   1.970   12810./
 PLOG  / 100.                        7.4E06   1.890   13603./ 
!
C2H2+OH=CH2CO+H                      7.5E06   1.550    2106 !   
 PLOG   /.01                         1.7E03   2.560    -844. /
 PLOG   /.025                        1.5E04   2.280    -292. /
 PLOG   / 0.1                        3.0E05   1.920     598. /
 PLOG   / 1.0                        7.5E06   1.550    2106. /
 PLOG   / 10.0                       5.1E06   1.650    3400. /
 PLOG   / 100.                       1.5E04   2.450    4477. /
!
C2H2+OH=C2H+H2O                  2.6E6     2.140     8586
!
C2H2+HO2=CH2CHOO                                  7.11E+20       -3.15    15650.0
  PLOG/1.000E-02                     5.0E06  -1.020    9152/
  PLOG/1.000E-02                     1.9E26  -8.34     9249/                             
  PLOG/1.000E-01                     6.0E17  -3.82    10790/
  PLOG/1.000E-01                    5.3E129 -41.74    35930/                           
  PLOG/3.160E-01                     2.5E48 -12.82    25220/
  PLOG/3.160E-01                     2.0E18  -3.67    10480/                            
  PLOG/1.000E+00                     4.1E50 -13.07    27220/
  PLOG/1.000E+00                     4.9E21  -4.37    12220/                            
  PLOG/3.160E+00                     9.1E46 -11.57    26880/
  PLOG/3.160E+00                     1.9E22  -4.28    13080/                            
  PLOG/1.000E+01                     4.6E43 -10.24    26930/
  PLOG/1.000E+01                     2.1E21  -3.78    13380/                            
  PLOG/3.160E+01                     5.6E38  -8.49    26210/
  PLOG/3.160E+01                     1.4E20  -3.30    13410/                            
  PLOG/1.000E+02                     2.5E35  -7.26    26390/
  PLOG/1.000E+02                     1.4E19  -2.91    13420/                            
!
C2H2+HO2=CHCHO+OH                               3.24E+09        1.05    16950.0
  PLOG/1.000E-02                     5.5E09   0.91    18500/
  PLOG/1.000E-02                     2.4E07   1.54    14690/                            
  PLOG/1.000E-01                     5.9E09   0.90    18550/
  PLOG/1.000E-01                     2.5E07   1.54    14700/                            
  PLOG/3.160E-01                     6.8E09   0.88    18640/
  PLOG/3.160E-01                     2.6E07   1.54    14730/                            
  PLOG/1.000E+00                     1.6E10   0.77    19040/
  PLOG/1.000E+00                     2.5E07   1.56    14790/                            
  PLOG/3.160E+00                     3.5E09   0.99    18810/
  PLOG/3.160E+00                     1.5E08   1.32    15090/                            
  PLOG/1.000E+01                     5.4E10   0.61    20740/
  PLOG/1.000E+01                     1.6E08   1.36    15420/                            
  PLOG/3.160E+01                     3.7E08   1.23    15960/
  PLOG/3.160E+01                     1.7E07   1.59    15910/                            
  PLOG/1.000E+02                     1.5E11   0.48    17730/
  PLOG/1.000E+02                     7.2E06   1.73    16020/                            
!
CHCHO+H=CH2CO+H                      1.0E14   0.000       0 ! #           
CHCHO+O2=CO2+H+HCO                   2.1E09   0.9929   -269 ! #           
CHCHO+O2=OCHCHO+O                    1.3E06   2.4202   1604 ! #            
!
C2H2+HO2=CH2CHO+O                              1.41E+05        1.86    15460.0
  PLOG/1.000E-02                     5.5      1.19    12880/
  PLOG/1.000E-02                     2.9E-4   4.16     7736/                             
  PLOG/1.000E-01                     1.1E08   0.77    13600/
  PLOG/1.000E-01                     6.1E03   3.81     8394/                             
  PLOG/3.160E-01                     1.2E07   1.09    13050/
  PLOG/3.160E-01                     5.4E-4   4.09     8044/                             
  PLOG/1.000E+00                     3.0E07   0.98    13310/
  PLOG/1.000E+00                     2.5E-4   4.19     8203/                             
  PLOG/3.160E+00                     2.0E74 -16.33   109200/
  PLOG/3.160E+00                     6.6E04   1.85    12360/                            
  PLOG/1.000E+01                     7.5E14  -1.17    18350/
  PLOG/1.000E+01                     2.9E-1   3.38    10590/                            
  PLOG/3.160E+01                     8.6E18  -2.27    22230/
  PLOG/3.160E+01                     2.0E00   3.17    11740/                            
  PLOG/1.000E+02                     5.8E18  -2.09    24350/
  PLOG/1.000E+02                     1.1E-1   3.52    11980/                            
C2H2+HO2=CH2O+HCO                                 8.66E+07        0.87    14170.0
  PLOG/1.000E-02                     3.9E13  -1.17    13750/
  PLOG/1.000E-02                     8.4E00   2.56     7382/                             
  PLOG/1.000E-01                     4.3E00   2.64     7253/
  PLOG/1.000E-01                     1.6E13  -1.05    13520/                            
  PLOG/3.160E-01                     2.6E-6   4.34     4525/
  PLOG/3.160E-01                     6.9E09  -0.00    11720/                            
  PLOG/1.000E+00                    3.3E102 -24.18   138600/
  PLOG/1.000E+00                     8.1E07   0.60    10850/                            
  PLOG/3.160E+00                     5.2E15  -1.75    15180/