ELEMENTS
C H N O AR HE
END
SPECIES
HE AR !N2

O2 
OH HO2
C3H6
!C3H8
npropyl ipropyl
npropyloo ipropyloo

!----------------------------------------------------------------
!- here are the species added by CFG
    propoxide   ! propylene-oxide 
	QOOH_1      ! 3-hydroperoxyl-1-propyl
	QOOH_2      ! 3-hydroperoxyl-2-propyl
	QOOH_3      ! 2-hydroperoxyl-1-propyl

	well_1      ! 3-hydroperoxyl-n-propylperoxy
	well_2      ! 1-methyl-2-hydroperoxyl-ethylperoxy
	well_3      ! 2-hydroperoxyl-n-propylperoxy
!	well_4      ! 1,3-dihydroperoxyl-2-propyl
	well_5      ! 2,3-dihydroperoxyl-n-propyl

	prod_1      ! 2-formyl-ethyl-hydroperoxide
    prod_2      ! allyl-hydroperoxide
	prod_3      ! oxiranyl-methyl-hydroperoxide
	prod_4      ! acetyl-methyl-hydroperoxide
	prod_5      ! 1-formyl-ethyl-hydroperoxide
	prod_6      ! 1-propene-hydroperoxide
	prod_7      ! 2-propene-hydroperoxide

	frag_1      ! 2-formyl-ethoxy
	frag_3      ! oxiranyl-methoxy
	frag_4      ! acetyl-methoxy
	frag_5      ! 1-formyl-ethoxy

    allyloxy
    propen1oxy
    propen2oxy


    CH3
    HCO
    CH2O    
    acetyl
    vinoxy
    acetaldehyde
    glyoxal

! Note, the following species are needed for allyloxy decomposition, should you need them.
    H
    H2O
    C2H3
    C2H4

    acrolein
    allyl
    vinoxylmethyl
    formylethyl


END

REACTIONS	CAL/MOL	MOLES


!-----------------------------------------------------------
!------------- CFG:  O2 + C3H7 MECHANISM   -----------------
!-----------------------------------------------------------

!
! o2 + n-propyl rates
!

O2 + npropyl = npropyloo     1.0E11  0.0  0.0 
PLOG/ 0.01 9.2e+008 0.405 -4398.65/
PLOG/ 0.1 1.45e+014 -0.984 -1710.8/
PLOG/ 1 2.09e+013 -0.499 -938.423/
PLOG/ 10 1.15e+020 -2.42 2451.26/
PLOG/ 100 2.07e+016 -1.3 803.419/
 
O2 + npropyl = QOOH_2     1.0E11  0.0  0.0 
PLOG/ 0.01 2.97e+015 -2.84 3567.51/
PLOG/ 0.1 2.64e+012 -1.58 3362.32/
PLOG/ 1 278 1.63 -492.364/
PLOG/ 10 1.3e+014 -1.73 5163.66/
PLOG/ 100 7.63e+016 -2.3 9036.14/
 
O2 + npropyl = QOOH_1     1.0E11  0.0  0.0 
PLOG/ 0.01 3.09e+146 -45.9 31282.2/
PLOG/ 0.1 1.26e+047 -12.4 8203.13/
PLOG/ 1 1.3e+023 -4.03 5088.67/
PLOG/ 10 3.94e-018 8.88 -6199.7/
PLOG/ 100 6.58e-015 7.8 -3431.01/
DUPLICATE
O2 + npropyl = QOOH_1     1.0E11  0.0  0.0 
PLOG/ 0.01 6.19e+008 0.878 11186.6/
PLOG/ 0.1 1.12e+014 -0.531 13897.5/
PLOG/ 1 2.07e+014 -0.4 15158.1/
PLOG/ 10 1.02e+021 -2.26 18554/
PLOG/ 100 1.05e+015 -0.486 15876.7/
DUPLICATE 

O2 + npropyl = HO2 + C3H6     1.0E11  0.0  0.0 
PLOG/ 0.01 5.05e+010 0.0206 501.905/
PLOG/ 0.1 7.47e+015 -1.45 4112.9/
PLOG/ 1 1.18e+019 -2.35 7299.53/
PLOG/ 10 2.63 3.46 2481.17/
PLOG/ 100 737 2.71 5496.47/
 
O2 + npropyl = OH + propoxide     1.0E11  0.0  0.0 
PLOG/ 0.01 7.98e+007 0.596 -63.5854/
PLOG/ 0.1 1.97e+013 -0.939 3664.19/
PLOG/ 1 1.73e+017 -2.05 7251.03/
PLOG/ 10 335 2.61 4697.39/
PLOG/ 100 3.05e+008 0.919 11048.4/
 
npropyloo = QOOH_2     1.0E11  0.0  0.0 
PLOG/ 0.01 9.48e+020 -5.14 23709.7/
PLOG/ 0.1 1.24e+022 -4.93 26477.8/
PLOG/ 1 1.99e+020 -3.92 27634.1/
PLOG/ 10 2.58e+042 -10.3 37670.2/
PLOG/ 100 2.79e+042 -10.1 39108.2/
 
npropyloo = QOOH_1     1.0E11  0.0  0.0 
PLOG/ 0.01 1.69e+004 1.56 18570.3/
PLOG/ 0.1 5.85e+004 1.66 19612/
PLOG/ 1 1.5e+003 2.32 19753.7/
PLOG/ 10 1.01 3.38 18994.8/
PLOG/ 100 3.39 3.23 19209.3/
DUPLICATE
npropyloo = QOOH_1     1.0E11  0.0  0.0 
PLOG/ 0.01 7.72e+017 0.000557 40393.1/
PLOG/ 0.1 7.02e+018 -0.00118 46931.8/
PLOG/ 1 1.19e+020 -0.00768 55223.8/
PLOG/ 10 1.26e+023 -0.0315 75440.7/
PLOG/ 100 4.06e+026 -0.0366 99400.7/
DUPLICATE
 
npropyloo = HO2 + C3H6     1.0E11  0.0  0.0 
PLOG/ 0.01 4.3e+053 -14 39526/
PLOG/ 0.1 9.52e+057 -15 42684.3/
PLOG/ 1 6.9e+033 -7.03 36543.5/
PLOG/ 10 2.55e+016 -1.22 32480.3/
PLOG/ 100 2.26e+032 -6.22 37948.2/
 
npropyloo = OH + propoxide     1.0E11  0.0  0.0 
PLOG/ 0.01 8.09e+047 -12.6 36677.4/
PLOG/ 0.1 5.45e+052 -13.7 40634.1/
PLOG/ 1 7.59e+033 -7.28 37564/
PLOG/ 10 3.28e+021 -2.88 37342.8/
PLOG/ 100 7.93e+033 -6.68 43797.1/
 
QOOH_2 = QOOH_1     1.0E11  0.0  0.0 
PLOG/ 0.01 6.24e-135 45.7 -19461.9/
PLOG/ 0.1 3e-176 57.9 -40421.7/
PLOG/ 1 1e-015 10.2 28593.7/
PLOG/ 10 5.36e-085 31 535.821/
PLOG/ 100 1.58e-133 45.1 -21126.5/
 
QOOH_2 = HO2 + C3H6     1.0E11  0.0  0.0 
PLOG/ 0.01 1.49e-015 9.24 18960.6/
PLOG/ 0.1 2.9e-044 17.6 1888.7/
PLOG/ 1 1.08e+031 -4.56 32122.6/
PLOG/ 10 1.16e-009 7.46 14745.7/
PLOG/ 100 1.27e-015 8.78 9266.54/
 
QOOH_2 = OH + propoxide     1.0E11  0.0  0.0 
PLOG/ 0.01 7.76 3.2 8964.96/
PLOG/ 0.1 3.64e-005 4.82 5689.6/
PLOG/ 1 1.74e+017 -1.42 15417.4/
PLOG/ 10 1.17e+004 2.74 10759.4/
PLOG/ 100 3.34e+014 -0.746 13073.8/
 
QOOH_1 = HO2 + C3H6     1.0E11  0.0  0.0 
PLOG/ 0.01 3.55e-090 27.5 -35057/
PLOG/ 0.1 3.21e+004 -0.342 4339.23/
PLOG/ 1 1.97e+026 -5.97 18742.8/
PLOG/ 10 1.6e+010 -0.444 17531.8/
PLOG/ 100 3.45e+017 -2.82 21579.1/
 
QOOH_1 = OH + propoxide     1.0E11  0.0  0.0 
PLOG/ 0.01 3e-094 28.3 -37005.6/
PLOG/ 0.1 17.2 0.354 3373.05/
PLOG/ 1 1.97e+025 -5.92 19144.8/
PLOG/ 10 4.6e+014 -1.97 21242.9/
PLOG/ 100 3.96e+025 -5.29 29002.8/

!
! o2 + i-propyl rates
!

O2 + ipropyl = ipropyloo     1.0E11  0.0  0.0 
PLOG/ 0.01 7.33e+005 1.33 -6345.64/
PLOG/ 0.1 2.24e+011 -0.105 -3697.87/
PLOG/ 1 1.54e+018 -2.02 -498.567/
PLOG/ 10 6.74e+027 -4.85 3779.82/
PLOG/ 100 1.67e+029 -5.15 5036.45/
 
O2 + ipropyl = QOOH_3     1.0E11  0.0  0.0 
PLOG/ 0.01 4.86e+010 -1.56 -708.183/
PLOG/ 0.1 3.76e+011 -1.48 470.031/
PLOG/ 1 4.08e+012 -1.45 2168.78/
PLOG/ 10 1.13e+014 -1.5 5253.42/
PLOG/ 100 3.56e+010 -0.116 7056.45/
 
O2 + ipropyl = HO2 + C3H6     1.0E11  0.0  0.0 
PLOG/ 0.01 5.91e+009 0.428 -1438.57/
PLOG/ 0.1 1.6e+014 -0.845 1423.77/
PLOG/ 1 4.05e+018 -2.07 4971.47/
PLOG/ 10 4.91e+017 -1.66 6964.04/
PLOG/ 100 9.84e+007 1.34 5379.12/
 
O2 + ipropyl = OH + propoxide     1.0E11  0.0  0.0 
PLOG/ 0.01 743 2.04 -2163.11/
PLOG/ 0.1 3.03e+007 0.708 692.028/
PLOG/ 1 4e+013 -1.03 5014.64/
PLOG/ 10 2.81e+018 -2.31 10119.3/
PLOG/ 100 1.35e+014 -0.832 12601.5/
 
ipropyloo = QOOH_3     1.0E11  0.0  0.0 
PLOG/ 0.01 6e+033 -8.94 30442.3/
PLOG/ 0.1 2.48e+034 -8.62 32904.7/
PLOG/ 1 2.01e+033 -7.75 34890.1/
PLOG/ 10 4.62e+027 -5.55 35036.7/
PLOG/ 100 2.22e+018 -2.35 33244.7/
 
ipropyloo = HO2 + C3H6     1.0E11  0.0  0.0 
PLOG/ 0.01 1.61e+075 -20.6 46203/
PLOG/ 0.1 1.72e+066 -17.3 45458.9/
PLOG/ 1 4.03e+056 -14 44010.2/
PLOG/ 10 1.29e+040 -8.58 39418.6/
PLOG/ 100 6.4e+025 -4.02 34913.9/
 
ipropyloo = OH + propoxide     1.0E11  0.0  0.0 
PLOG/ 0.01 3.67e+087 -25.3 51030.1/
PLOG/ 0.1 1.24e+072 -19.8 49111.1/
PLOG/ 1 1.35e+067 -17.7 50804.5/
PLOG/ 10 1.94e+053 -13 49382.4/
PLOG/ 100 7.6e+036 -7.67 46500.2/
 
QOOH_3 = HO2 + C3H6     1.0E11  0.0  0.0 
PLOG/ 0.01 1.27e-080 27.8 -15752.5/
PLOG/ 0.1 3.07e-068 24.1 -13624.7/
PLOG/ 1 7.16e-048 18.1 -6620.37/
PLOG/ 10 5.04e-023 10.5 2465.01/
PLOG/ 100 1.04e+023 -3.25 20247.9/
 
QOOH_3 = OH + propoxide     1.0E11  0.0  0.0 
PLOG/ 0.01 2.31e-006 4.58 2774.7/
PLOG/ 0.1 3.37 2.89 5130.02/
PLOG/ 1 1.15e+009 0.521 9007.53/
PLOG/ 10 5.4e+016 -1.64 12694.5/
PLOG/ 100 2.98e+018 -2 14250.8/

!
! propene + HO2 rates
!

HO2 + C3H6 = OH + propoxide     1.0E11  0.0  0.0 
PLOG/ 0.01 4.72e+004 2.29 12336.1/
PLOG/ 0.1 1.09e+005 2.18 12534.6/
PLOG/ 1 4.66e+007 1.42 14066.2/
PLOG/ 10 1.93e+012 0.107 17384.8/
PLOG/ 100 1.3e+011 0.544 19059.2/

!-----------------------------------------------------------
!------------- END   O2 + C3H7 MECHANISM   -----------------
!-----------------------------------------------------------


!----------------------------------------------------------
!------------- CFG:  O2 + QOOH MECHANISM   -----------------
!-----------------------------------------------------------


!
! o2 + qooh-1 
!

O2 + QOOH_1 = well_1     1.0E11  0.0  0.0 
PLOG/ 0.01 2.95e+042 -10.2 5862.36/
PLOG/ 0.1 4.3e+042 -9.88 7526.86/
PLOG/ 1 7.47e+036 -7.85 6724.35/
PLOG/ 10 2.18e+027 -4.75 4026.17/
PLOG/ 100 1.46e+018 -1.85 1005.84/
 
!O2 + QOOH_1 = OH + prod_1     1.0E11  0.0  0.0 
O2 + QOOH_1 = OH + OH + frag_1     1.0E11  0.0  0.0  
PLOG/ 0.01 6.2e+030 -6.23 5241.55/
PLOG/ 0.1 2.42e+032 -6.58 8144.72/
PLOG/ 1 3.7e+027 -5.03 8654.43/
PLOG/ 10 3.58e+015 -1.36 5985.73/
PLOG/ 100 6.32 3.02 1625.07/
 
O2 + QOOH_1 = HO2 + prod_2     1.0E11  0.0  0.0 
PLOG/ 0.01 1.46e+015 -1.27 3278.88/
PLOG/ 0.1 2.53e+020 -2.73 7332.77/
PLOG/ 1 2.77e+020 -2.61 9796.94/
PLOG/ 10 3.08e+011 0.179 8569.97/
PLOG/ 100 0.000676 4.57 4463.75/
 
O2 + QOOH_1 = OH + prod_3     1.0E11  0.0  0.0 
PLOG/ 0.01 8.19e+011 -0.662 2531.87/
PLOG/ 0.1 2.74e+017 -2.21 6728.97/
PLOG/ 1 6.7e+017 -2.19 9352.46/
PLOG/ 10 1.36e+009 0.523 8258.81/
PLOG/ 100 2.54e-006 4.94 4158.7/

!
! o2 + qooh-2 
!
 
O2 + QOOH_2 = well_2     1.0E11  0.0  0.0  
PLOG/ 0.01 3.53e+043 -10.6 5580.18/
PLOG/ 0.1 1.73e+044 -10.5 7435.82/
PLOG/ 1 5.07e+040 -9.11 7633.29/
PLOG/ 10 4.23e+032 -6.42 5737/
PLOG/ 100 6.65e+022 -3.28 2694.88/
 
O2 + QOOH_2 = well_3     1.0E11  0.0  0.0  
PLOG/ 0.01 1.23e+068 -18.8 15888.8/
PLOG/ 0.1 9.14e+063 -17.2 17206.4/
PLOG/ 1 3.48e+057 -15 17892.1/
PLOG/ 10 2.64e+039 -9.26 13927.4/
PLOG/ 100 9.85e+016 -2.36 7518.56/
 
O2 + QOOH_2 = well_5     1.0E11  0.0  0.0  
PLOG/ 0.01 2.7e+071 -20.4 19335.5/
PLOG/ 0.1 1.18e+056 -15.4 17248.5/
PLOG/ 1 9.12e+046 -12.2 18245.2/
PLOG/ 10 1.88e+034 -8.11 18261.7/
PLOG/ 100 1.26e+009 -0.359 12787.9/
 
O2 + QOOH_2 = OH + prod_3     1.0E11  0.0  0.0  
PLOG/ 0.01 5.9e+040 -10.4 9903.31/
PLOG/ 0.1 4.98e+043 -11.1 15059.9/
PLOG/ 1 2.48e+044 -11 20566.1/
PLOG/ 10 1.77e+036 -8.31 23587.3/
PLOG/ 100 9.9e+009 -0.31 19165.5/
 
!O2 + QOOH_2 = OH + prod_4     1.0E11  0.0  0.0  
O2 + QOOH_2 = OH + OH + frag_4     1.0E11  0.0  0.0  
PLOG/ 0.01 5.81e+037 -9.43 8668.1/
PLOG/ 0.1 6.21e+039 -9.86 13086.8/
PLOG/ 1 4.55e+037 -9 16522.9/
PLOG/ 10 1.97e+026 -5.41 16537.7/
PLOG/ 100 715 1.7 11159.5/
 
!O2 + QOOH_2 = OH + prod_5     1.0E11  0.0  0.0  
O2 + QOOH_2 = OH + OH + frag_5     1.0E11  0.0  0.0  
PLOG/ 0.01 2.79e+012 -0.855 528.159/
PLOG/ 0.1 8.75e+017 -2.4 4566.98/
PLOG/ 1 1.79e+020 -2.96 7843.92/
PLOG/ 10 9.72e+014 -1.26 8212.43/
PLOG/ 100 73.6 2.72 5020.39/
 
O2 + QOOH_2 = HO2 + prod_2     1.0E11  0.0  0.0  
PLOG/ 0.01 6.32e+010 0.00166 874.545/
PLOG/ 0.1 5.12e+016 -1.68 4872.14/
PLOG/ 1 1.51e+020 -2.59 8512.58/
PLOG/ 10 1.51e+016 -1.27 9391.5/
PLOG/ 100 4.35e+003 2.55 6477.35/
 
O2 + QOOH_2 = HO2 + prod_6     1.0E11  0.0  0.0  
PLOG/ 0.01 1.8e+008 0.606 591.748/
PLOG/ 0.1 2.05e+014 -1.12 4599.17/
PLOG/ 1 1.61e+018 -2.16 8382.66/
PLOG/ 10 5.14e+014 -0.988 9471.9/
PLOG/ 100 250 2.77 6674.51/
 
O2 + QOOH_2 = HO2 + prod_7     1.0E11  0.0  0.0  
PLOG/ 0.01 8.76e+026 -5.92 6495.86/
PLOG/ 0.1 3.26e+032 -7.42 11890.7/
PLOG/ 1 1.52e+034 -7.71 16629.1/
PLOG/ 10 1.33e+026 -5.08 17982.6/
PLOG/ 100 2.68e+004 1.52 13435.1/
 
O2 + QOOH_2 = O2 + QOOH_3     1.0E11  0.0  0.0  
PLOG/ 0.01 1.68e+033 -7.31 8134.43/
PLOG/ 0.1 4.31e+038 -8.76 13399.4/
PLOG/ 1 8.96e+039 -8.95 17948/
PLOG/ 10 3.58e+031 -6.24 19091.9/
PLOG/ 100 1.02e+010 0.304 14494.8/

!
! o2 + qooh-3 
!

O2 + QOOH_3 = well_2     1.0E11  0.0  0.0  
PLOG/ 0.01 3.34e+046 -12 9049.43/
PLOG/ 0.1 5.37e+042 -10.6 10094/
PLOG/ 1 2.82e+034 -7.84 9748.12/
PLOG/ 10 8.14e+026 -5.4 9407.36/
PLOG/ 100 5.55e+009 -0.118 4986.52/
 
O2 + QOOH_3 = well_3     1.0E11  0.0  0.0  
PLOG/ 0.01 1.15e+019 -3.42 -4037.27/
PLOG/ 0.1 1.5e+027 -5.55 517.703/
PLOG/ 1 4.1e+033 -7.19 4543.4/
PLOG/ 10 5.85e+033 -6.97 6018.35/
PLOG/ 100 6.87e+025 -4.35 4019.75/
 
O2 + QOOH_3 = well_5     1.0E11  0.0  0.0  
PLOG/ 0.01 2.06e+029 -7.2 1939.2/
PLOG/ 0.1 4.31e+034 -8.44 6445.02/
PLOG/ 1 3.03e+037 -8.9 10770.5/
PLOG/ 10 2.01e+031 -6.67 11888/
PLOG/ 100 1.46e+016 -1.87 8889.32/
 
O2 + QOOH_3 = OH + prod_3     1.0E11  0.0  0.0  
PLOG/ 0.01 2.19e+013 -1.36 92.5373/
PLOG/ 0.1 2.98e+022 -3.99 5872.99/
PLOG/ 1 1.3e+032 -6.72 13055.9/
PLOG/ 10 3.6e+031 -6.33 17283.5/
PLOG/ 100 1.15e+015 -1.23 15030.6/
 
!O2 + QOOH_3 = OH + prod_4     1.0E11  0.0  0.0  
O2 + QOOH_3 = OH + OH + frag_4     1.0E11  0.0  0.0  
PLOG/ 0.01 1.28e+009 -0.0411 -1693.52/
PLOG/ 0.1 1.26e+016 -2.06 2603.12/
PLOG/ 1 6.7e+022 -3.98 7360.21/
PLOG/ 10 2.35e+021 -3.39 9360.49/
PLOG/ 100 1.13e+010 0.117 7227.07/
 
!O2 + QOOH_3 = OH + prod_5     1.0E11  0.0  0.0  
O2 + QOOH_3 = OH + OH + frag_5     1.0E11  0.0  0.0  
PLOG/ 0.01 8.11e+018 -3.19 5910.89/
PLOG/ 0.1 3.67e+013 -1.44 6967.38/
PLOG/ 1 5.7e+006 0.697 7673.86/
PLOG/ 10 2.3e+003 1.68 9631.39/
PLOG/ 100 5.91e-013 6.32 6807.79/
 
O2 + QOOH_3 = HO2 + prod_2     1.0E11  0.0  0.0  
PLOG/ 0.01 1.83e+015 -1.76 4656.56/
PLOG/ 0.1 4.68e+015 -1.86 6599.16/
PLOG/ 1 1.81e+022 -3.78 11804.9/
PLOG/ 10 8.68e+020 -3.2 15352.4/
PLOG/ 100 2.23e+004 1.94 13074.8/
 
O2 + QOOH_3 = HO2 + prod_6     1.0E11  0.0  0.0  
PLOG/ 0.01 1.06e+018 -2.77 6957.57/
PLOG/ 0.1 2.41e+012 -0.913 7831.26/
PLOG/ 1 3.37e+005 1.25 8423.79/
PLOG/ 10 781 2.02 10617.2/
PLOG/ 100 2.04e-012 6.35 8211.57/
 
O2 + QOOH_3 = HO2 + prod_7     1.0E11  0.0  0.0  
PLOG/ 0.01 1.69e+005 1.47 -339.622/
PLOG/ 0.1 1.92e+011 -0.295 3115.73/
PLOG/ 1 8.39e+018 -2.5 7895.85/
PLOG/ 10 3.26e+020 -2.84 10971/
PLOG/ 100 2.02e+011 0.0484 9736.61/
 
!
! well-1 
!
 
well_1 = OH + prod_1     1.0E11  0.0  0.0 
PLOG/ 0.01 4.08e+029 -6.39 23440.2/
PLOG/ 0.1 2.49e+025 -4.95 22612.5/
PLOG/ 1 1.01e+019 -2.88 20803.6/
PLOG/ 10 4.46e+011 -0.538 18441.1/
PLOG/ 100 1.67e+005 1.48 16237.9/
 
well_1 = HO2 + prod_2     1.0E11  0.0  0.0 
PLOG/ 0.01 3.85e+046 -11.4 37872.4/
PLOG/ 0.1 5.56e+044 -10.5 38835.5/
PLOG/ 1 3.87e+037 -8.08 37522.3/
PLOG/ 10 6.42e+026 -4.59 34397.2/
PLOG/ 100 1.96e+016 -1.27 30917.4/
 
well_1 = OH + prod_3     1.0E11  0.0  0.0 
PLOG/ 0.01 2.47e+038 -9.47 33733.9/
PLOG/ 0.1 4.84e+035 -8.3 34435.4/
PLOG/ 1 6.96e+027 -5.62 32905.9/
PLOG/ 10 2.66e+016 -1.93 29583.6/
PLOG/ 100 1.72e+005 1.6 25882.4/

!
! well-2 decomp
!

well_2 = well_3     1.0E11  0.0  0.0  
PLOG/ 0.01 4.97e+032 -7.73 24948.9/
PLOG/ 0.1 7.45e+030 -7.03 25023.3/
PLOG/ 1 8.96e+026 -5.68 24305.7/
PLOG/ 10 3.25e+019 -3.28 22143/
PLOG/ 100 8.35e+010 -0.557 19334.7/
 
well_2 = well_5     1.0E11  0.0  0.0  
PLOG/ 0.01 6.93e+057 -15.8 40643.8/
PLOG/ 0.1 4.01e+056 -15.2 42938.1/
PLOG/ 1 1.65e+051 -13.3 43899.1/
PLOG/ 10 1.53e+039 -9.43 42209.2/
PLOG/ 100 7.45e+008 -0.201 31860.5/
 
well_2 = OH + prod_3     1.0E11  0.0  0.0  
PLOG/ 0.01 3.96e+074 -20.6 49025.7/
PLOG/ 0.1 3.82e+075 -20.6 53261.9/
PLOG/ 1 3.59e+071 -19.1 56337.8/
PLOG/ 10 2.3e+058 -14.9 56128.4/
PLOG/ 100 2.87e+029 -6.03 49095.4/
 
well_2 = OH + prod_4     1.0E11  0.0  0.0  
PLOG/ 0.01 1.1e+067 -18.3 45214.8/
PLOG/ 0.1 7.5e+062 -16.8 46575.3/
PLOG/ 1 6.21e+052 -13.6 45642.4/
PLOG/ 10 8.86e+036 -8.6 42193.9/
PLOG/ 100 1.29e+015 -1.92 35845/
 
well_2 = OH + prod_5     1.0E11  0.0  0.0  
PLOG/ 0.01 2.53e+040 -9.91 32631.4/
PLOG/ 0.1 2.54e+037 -8.72 32909.5/
PLOG/ 1 1.12e+031 -6.53 31806.6/
PLOG/ 10 1.98e+021 -3.34 29137.8/
PLOG/ 100 1.95e+010 0.154 25612/
 
well_2 = HO2 + prod_2     1.0E11  0.0  0.0  
PLOG/ 0.01 1.02e+051 -12.8 39361.7/
PLOG/ 0.1 1.2e+050 -12.2 40662/
PLOG/ 1 1.15e+045 -10.3 40331.6/
PLOG/ 10 3.13e+035 -7.15 37939.5/
PLOG/ 100 7.71e+023 -3.45 34300.5/
 
well_2 = HO2 + prod_6     1.0E11  0.0  0.0  
PLOG/ 0.01 1.04e+050 -12.7 39535.8/
PLOG/ 0.1 2.23e+049 -12.1 41005.3/
PLOG/ 1 2.98e+044 -10.3 40814.4/
PLOG/ 10 5.65e+034 -7.1 38441.9/
PLOG/ 100 5.15e+022 -3.26 34691.2/
 
well_2 = HO2 + prod_7     1.0E11  0.0  0.0  
PLOG/ 0.01 7.84e+068 -18.8 48356.9/
PLOG/ 0.1 1.43e+067 -18 50795.4/
PLOG/ 1 4.77e+059 -15.4 51184.2/
PLOG/ 10 1.87e+045 -10.8 48655.3/
PLOG/ 100 1.55e+023 -3.97 42477.9/
  
!
! well-3 decomp
!

well_3 = well_5     1.0E11  0.0  0.0  
PLOG/ 0.01 1.75e+042 -10.5 31158.6/
PLOG/ 0.1 2.76e+039 -9.32 31690.6/
PLOG/ 1 1.42e+033 -7.12 30696.5/
PLOG/ 10 3.66e+025 -4.59 28857.5/
PLOG/ 100 1.98e+016 -1.63 25974/
 
well_3 = OH + prod_3     1.0E11  0.0  0.0  
PLOG/ 0.01 1.11e+075 -20.3 46622.1/
PLOG/ 0.1 3.41e+071 -18.8 48632.2/
PLOG/ 1 1.91e+060 -15 47775.5/
PLOG/ 10 3.44e+050 -11.8 47080.2/
PLOG/ 100 8.89e+030 -5.73 41827.7/
 
well_3 = OH + prod_4     1.0E11  0.0  0.0  
PLOG/ 0.01 4.03e+049 -12.6 34314.3/
PLOG/ 0.1 9.78e+040 -9.67 32757/
PLOG/ 1 1.47e+028 -5.51 29111.3/
PLOG/ 10 7.98e+018 -2.52 26399.8/
PLOG/ 100 2.04e+009 0.515 23246.5/
 
well_3 = OH + prod_5     1.0E11  0.0  0.0  
PLOG/ 0.01 1.74e+040 -9.94 36652.7/
PLOG/ 0.1 1.98e+053 -14.1 42545.6/
PLOG/ 1 1.46e+053 -13.7 46323.8/
PLOG/ 10 1.08e+038 -8.9 43329.8/
PLOG/ 100 1.4e+016 -2.18 37096.2/
 
well_3 = HO2 + prod_2     1.0E11  0.0  0.0  
PLOG/ 0.01 4.87e+048 -12.3 39596.8/
PLOG/ 0.1 6.31e+085 -23.5 55900.2/
PLOG/ 1 7.67e+059 -15.1 49926.5/
PLOG/ 10 1.3e+050 -11.8 49506.7/
PLOG/ 100 2.1e+029 -5.33 44043.7/
 
well_3 = HO2 + prod_6     1.0E11  0.0  0.0  
PLOG/ 0.01 3.6e+041 -10.3 38545/
PLOG/ 0.1 3.08e+056 -14.9 45866.1/
PLOG/ 1 2.01e+057 -14.8 49803.7/
PLOG/ 10 1.71e+043 -10.3 47485.1/
PLOG/ 100 1.45e+021 -3.45 41382.6/
 
well_3 = HO2 + prod_7     1.0E11  0.0  0.0  
PLOG/ 0.01 6.58e+063 -16.7 44481.3/
PLOG/ 0.1 1.17e+059 -14.8 44912.1/
PLOG/ 1 1.74e+047 -10.9 42145.6/
PLOG/ 10 3.79e+037 -7.68 39639.1/
PLOG/ 100 2.99e+026 -4.15 36105/
  
!
! well-5 decomp
!
 
well_5 = OH + prod_3     1.0E11  0.0  0.0  
PLOG/ 0.01 3.3e+011 -0.635 11041.5/
PLOG/ 0.1 1.61e+018 -2.41 14413.8/
PLOG/ 1 4.78e+024 -4.13 18110/
PLOG/ 10 5.27e+021 -3 18125.3/
PLOG/ 100 6.12e+015 -1.06 16486.4/
 
well_5 = OH + prod_4     1.0E11  0.0  0.0  
PLOG/ 0.01 1.16e-025 10.4 2788.19/
PLOG/ 0.1 5.6e-037 13.9 -256.536/
PLOG/ 1 2.24e+008 0.0821 17439.4/
PLOG/ 10 4.11e+020 -3.63 24307.5/
PLOG/ 100 5.09e+005 0.938 20652.7/
 
well_5 = OH + prod_5     1.0E11  0.0  0.0  
PLOG/ 0.01 7.61e-032 11.9 4218.28/
PLOG/ 0.1 9.21e-042 14.8 1990.43/
PLOG/ 1 2.2e+006 0.0203 21510.8/
PLOG/ 10 3.28e+028 -6.77 33682.1/
PLOG/ 100 2.83e+008 -0.63 29961.5/
 
well_5 = HO2 + prod_2     1.0E11  0.0  0.0  
PLOG/ 0.01 0.0143 3.17 9063.13/
PLOG/ 0.1 7.78e+013 -1.39 15409.5/
PLOG/ 1 2.85e+025 -4.59 21213.3/
PLOG/ 10 4.89e+022 -3.45 21660.8/
PLOG/ 100 1.71e+015 -1 19678.2/
 
well_5 = HO2 + prod_6     1.0E11  0.0  0.0  
PLOG/ 0.01 1.45e-032 12.1 4947.89/
PLOG/ 0.1 8.98e-042 14.9 2925.61/
PLOG/ 1 2.85e+007 -0.22 22938/
PLOG/ 10 2.1e+030 -7.16 35571.2/
PLOG/ 100 6.29e+010 -1.14 32271.3/
 
well_5 = HO2 + prod_7     1.0E11  0.0  0.0  
PLOG/ 0.01 2.18e-024 10.1 5619.89/
PLOG/ 0.1 7.46e-035 13.4 2720.21/
PLOG/ 1 4.29e+012 -0.99 21364.7/
PLOG/ 10 1.78e+026 -5.03 29085/
PLOG/ 100 2.66e+011 -0.433 25731.4/



 





!-------------------------------------------------
!
! C3H5OOH decomp
!


! NOTE prod_2 decomp belongs to the allyl + HO2 mechanism.
prod_2 = allyloxy + OH     1.0E11  0.0  0.0 
PLOG/ 0.01 1.49e+058 -13.9 54266.9/
PLOG/ 0.1 1.8e+054 -12.4 54193.8/
PLOG/ 1 3.36e+046 -9.81 52468.5/
PLOG/ 10 2.39e+036 -6.54 49429/
PLOG/ 100 1.28e+027 -3.61 46333.1/

!not computed explicitly; taken by analogy from oh + allyloxy
prod_6 = propen1oxy + OH     1.0E11  0.0  0.0 
PLOG/ 0.01 1.49e+058 -13.9 28146.9/
PLOG/ 0.1 1.8e+054 -12.4 28073.8/
PLOG/ 1 3.36e+046 -9.81 26348.5/
PLOG/ 10 2.39e+036 -6.54 23309/
PLOG/ 100 1.28e+027 -3.61 20213.1/
 
!not computed explicitly; taken by analogy from oh + allyloxy
prod_7 = propen2oxy + OH     1.0E11  0.0  0.0 
PLOG/ 0.01 1.49e+058 -13.9 30966.9/
PLOG/ 0.1 1.8e+054 -12.4 30893.8/
PLOG/ 1 3.36e+046 -9.81 29168.5/
PLOG/ 10 2.39e+036 -6.54 26129/
PLOG/ 100 1.28e+027 -3.61 23033.1/

!-------------------------------------------------
!
! OC3H5OOH decomp
!
 
prod_1 = frag_1 + OH  2.23e+024 -2.65 44965.6
PLOG/ 0.01 3.41e+064 -15.9 55761.4/
PLOG/ 0.1 1.97e+061 -14.6 56011.5/
PLOG/ 1 1.07e+054 -12.1 54562.8/
PLOG/ 10 5.29e+043 -8.74 51568.5/
PLOG/ 100 4.06e+033 -5.54 48225.4/
 
!not computed explicitly; taken by analogy from acetyl-methoxy + oh
prod_3 = frag_3 + OH  3.87e+021 -1.82 44588.5
PLOG/ 0.01 5.2e+064 -15.9 56650.1/
PLOG/ 0.1 2.19e+060 -14.2 56479.7/
PLOG/ 1 1.08e+052 -11.5 54580.4/
PLOG/ 10 1.56e+041 -7.97 51321/
PLOG/ 100 1.03e+031 -4.76 47921.9/
 
prod_4 = frag_4 + OH  3.87e+021 -1.82 44588.5
PLOG/ 0.01 5.2e+064 -15.9 56650.1/
PLOG/ 0.1 2.19e+060 -14.2 56479.7/
PLOG/ 1 1.08e+052 -11.5 54580.4/
PLOG/ 10 1.56e+041 -7.97 51321/
PLOG/ 100 1.03e+031 -4.76 47921.9/
 
prod_5 = frag_5 + OH  3.87e+021 -1.82 44588.5
PLOG/ 0.01 5.2e+064 -15.9 56650.1/
PLOG/ 0.1 2.19e+060 -14.2 56479.7/
PLOG/ 1 1.08e+052 -11.5 54580.4/
PLOG/ 10 1.56e+041 -7.97 51321/
PLOG/ 100 1.03e+031 -4.76 47921.9/

!
! C3H5O2 beta-scission rates
!

frag_1 = vinoxy + CH2O 4.94e+010  0.857  5809.2
 
frag_4 = acetyl + CH2O       5.73e+013  -0.0247  4473.48
 
frag_5 = CH3 + glyoxal        1.74e+011  0.833  9833.14
 
frag_5 = HCO + acetaldehyde       2.12e+014  -0.141  1108.66


 
!-----------------------------------------------------------
!------------- END   O2 + QOOH MECHANISM   -----------------
!-----------------------------------------------------------


 
!-----------------------------------------------------------
!------------- BEGIN ALLYL + HO2 MECHANISM   ---------------
!-----------------------------------------------------------


allyl + HO2 = prod_2     1.0E11  0.0  0.0 
PLOG/ 0.01 1.91e+031 -7.23 1336.16/
PLOG/ 0.1 6.31e+042 -10.3 5568.88/
PLOG/ 1 1.03e+045 -10.6 7851.49/
PLOG/ 10 2.79e+037 -7.92 6497.86/
PLOG/ 100 4.73e+025 -4.13 2923.78/
 
allyl + HO2 = acrolein + H2O     1.0E11  0.0  0.0 
PLOG/ 0.01 1.09 3.01 -3421.08/
PLOG/ 0.1 63.5 2.5 -2341.44/
PLOG/ 1 6.05e+005 1.39 595.059/
PLOG/ 10 3.1e+005 1.59 2677.55/
PLOG/ 100 5.07e-005 4.59 927.501/
 
allyl + HO2 = allyloxy + OH     1.0E11  0.0  0.0 
PLOG/ 0.01 1.02e+013 -0.158 -1417.01/
PLOG/ 0.1 4.98e+014 -0.642 -349.128/
PLOG/ 1 7.77e+017 -1.52 2379.2/
PLOG/ 10 2.93e+015 -0.684 3615.32/
PLOG/ 100 1.64e+004 2.74 1144.38/

! allyl-hydroperoxide decomposition
 
prod_2 = acrolein + H2O     1.0E11  0.0  0.0 
PLOG/ 0.01 1.99e+050 -12.7 53531.9/
PLOG/ 0.1 4.72e+047 -11.5 54360.9/
PLOG/ 1 1.5e+040 -8.84 53179.2/
PLOG/ 10 2.54e+028 -5 49919.4/
PLOG/ 100 1.48e+016 -1.12 45949.3/
 
! commented out because it is included in C3H5OOH decomp above.
!prod_2 = allyloxy + OH     1.0E11  0.0  0.0 
!PLOG/ 0.01 1.49e+058 -13.9 54266.9/
!PLOG/ 0.1 1.8e+054 -12.4 54193.8/
!PLOG/ 1 3.36e+046 -9.81 52468.5/
!PLOG/ 10 2.39e+036 -6.54 49429/
!PLOG/ 100 1.28e+027 -3.61 46333.1/

!
! allyloxy decomposition
!
 
allyloxy = C2H3 + CH2O     1.0E11  0.0  0.0 
PLOG/ 0.001 7.26e+006 0.182 17815.5/
PLOG/ 0.01 6.97e+016 -2.5 20878.7/
PLOG/ 0.1 6.64e+023 -4.23 23565/
PLOG/ 1 1.07e+026 -4.56 24622.9/
PLOG/ 10 6.5e+029 -5.37 26645/
PLOG/ 100 4.63e+031 -5.59 28915.3/
PLOG/ 1000 8.52e+025 -3.61 27863.4/
 
allyloxy = vinoxylmethyl     1.0E11  0.0  0.0 
PLOG/ 0.001 3.17e+020 -4.15 12121.3/
PLOG/ 0.01 4.79e+024 -5.03 14606.1/
PLOG/ 0.1 1.9e+026 -5.16 16124.4/
PLOG/ 1 1.51e+028 -5.4 18165.4/
PLOG/ 10 2.42e+028 -5.17 19691.2/
PLOG/ 100 5.57e+024 -3.86 19395.2/
PLOG/ 1000 1.35e+018 -1.73 17386.5/
 
allyloxy = formylethyl     1.0E11  0.0  0.0 
PLOG/ 0.001 5.25e-049 15.5 -15639.9/
PLOG/ 0.01 1.46e-088 27.6 -35995/
PLOG/ 0.1 4.44e-022 8.38 -3819.01/
PLOG/ 1 6.23e+012 -1.44 10829.2/
PLOG/ 10 3.48e+042 -9.91 25297.9/
PLOG/ 100 1.88e+038 -8.16 25974.5/
PLOG/ 1000 1.67e+021 -2.74 20337.7/
 
allyloxy = acrolein + H     1.0E11  0.0  0.0 
PLOG/ 0.001 3e+015 -2.31 14667.9/
PLOG/ 0.01 1.5e+022 -3.96 18283/
PLOG/ 0.1 1.95e+023 -3.99 19143.3/
PLOG/ 1 1.15e+025 -4.24 20311.2/
PLOG/ 10 1.76e+028 -4.89 22765.2/
PLOG/ 100 1.41e+027 -4.28 23770.6/
PLOG/ 1000 2.57e+020 -2.06 22040.1/
 
allyloxy = C2H4 + HCO     1.0E11  0.0  0.0 
PLOG/ 0.001 6.62e+016 -2.84 13197/
PLOG/ 0.01 1.26e+020 -3.53 15469.2/
PLOG/ 0.1 2.13e+021 -3.64 16584.5/
PLOG/ 1 1.07e+024 -4.16 18985/
PLOG/ 10 8.42e+025 -4.4 22382.6/
PLOG/ 100 1.86e+021 -2.73 23658.8/
PLOG/ 1000 4.75e+008 1.14 20922.5/
 
!
! vinoxyl-methyl decomposition
!

vinoxylmethyl = C2H3 + CH2O     1.0E11  0.0  0.0 
PLOG/ 0.001 3.3e+009 -0.638 19747.8/
PLOG/ 0.01 3.36e+021 -3.9 23945.2/
PLOG/ 0.1 2.91e+029 -5.9 27249.7/
PLOG/ 1 1.83e+034 -6.94 30690.4/
PLOG/ 10 9.72e+033 -6.5 33002.5/
PLOG/ 100 2.68e+027 -4.26 33305.6/
PLOG/ 1000 8.81e+014 -0.326 31553.1/
 
vinoxylmethyl = formylethyl     1.0E11  0.0  0.0 
PLOG/ 0.001 8.01e-092 27.8 -37321.2/
PLOG/ 0.01 7.78e-011 3.7 -2766.86/
PLOG/ 0.1 5.11e+015 -2.76 15937.6/
PLOG/ 1 4.48e+025 -5.2 21532.2/
PLOG/ 10 3.97e+034 -7.41 28116.9/
PLOG/ 100 5.62e+022 -3.56 25806.7/
PLOG/ 1000 2.51e+020 -2.63 29288.4/
 
vinoxylmethyl = acrolein + H     1.0E11  0.0  0.0 
PLOG/ 0.001 4.93e+024 -5.05 20108.4/
PLOG/ 0.01 2.14e+028 -5.8 22219.4/
PLOG/ 0.1 1.93e+032 -6.64 25108.2/
PLOG/ 1 8.6e+034 -7.11 28209.1/
PLOG/ 10 2.17e+034 -6.64 30647.6/
PLOG/ 100 4.17e+028 -4.71 31231.9/
PLOG/ 1000 3.98e+018 -1.62 30129.8/
 
vinoxylmethyl = C2H4 + HCO     1.0E11  0.0  0.0 
PLOG/ 0.001 8.23e+026 -5.84 19356.9/
PLOG/ 0.01 1.32e+029 -6.21 21293.6/
PLOG/ 0.1 3.47e+032 -6.96 24197.3/
PLOG/ 1 1.44e+036 -7.76 28007.8/
PLOG/ 10 9.72e+037 -8.02 32394.6/
PLOG/ 100 2.43e+031 -5.81 34295.8/
PLOG/ 1000 3.73e+014 -0.726 32008.3/

!
! formyl-ethyl decomposition
!
 
formylethyl = C2H3 + CH2O     1.0E11  0.0  0.0 
PLOG/ 0.001 6.89e-069 21.5 2637.98/
PLOG/ 0.01 5.34e-033 11.1 16749.1/
PLOG/ 0.1 6.11e+026 -6.01 44116.7/
PLOG/ 1 8.04e+035 -8.31 46919.7/
PLOG/ 10 5.52e+040 -9.19 50508.7/
PLOG/ 100 5.85e+035 -7.18 52038.4/
PLOG/ 1000 1.93e+019 -1.94 48440/
 
formylethyl = acrolein + H     1.0E11  0.0  0.0 
PLOG/ 0.001 1.61e+010 -1.24 32371.3/
PLOG/ 0.01 5.84e+015 -2.61 32878.4/
PLOG/ 0.1 3.64e+023 -4.6 34275.3/
PLOG/ 1 7.58e+031 -6.63 37895.4/
PLOG/ 10 2.86e+032 -6.3 39990.7/
PLOG/ 100 1.57e+023 -3.14 38011.7/
PLOG/ 1000 4.52e+012 0.214 34570.5/
 
formylethyl = C2H4 + HCO     1.0E11  0.0  0.0 
PLOG/ 0.001 2.9e+032 -7.24 25687.5/
PLOG/ 0.01 5.3e+033 -7.28 27100.6/
PLOG/ 0.1 2e+035 -7.41 29027.3/
PLOG/ 1 1.01e+034 -6.7 30018.1/
PLOG/ 10 9.76e+027 -4.63 28923.9/
PLOG/ 100 2.11e+019 -1.85 26239.8/
PLOG/ 1000 1.59e+013 0.0634 24086.3/

!
! vinyl + CH2O
!
 
C2H3 + CH2O = acrolein + H     1.0E11  0.0  0.0 
PLOG/ 0.001 2.6e+004 2.26 1510.3/
PLOG/ 0.01 5.13e+004 2.17 1675.54/
PLOG/ 0.1 3.99e+005 1.91 2218.34/
PLOG/ 1 1.75e+007 1.45 3428.01/
PLOG/ 10 1.35e+009 0.933 5172.99/
PLOG/ 100 2.24e+011 0.357 8001.32/
PLOG/ 1000 6.01e+005 2.09 7895.57/
 
C2H3 + CH2O = C2H4 + HCO     1.0E11  0.0  0.0 
PLOG/ 0.001 1.11e+007 1.09 1807.2/
PLOG/ 0.01 2.47e+007 0.993 1994.94/
PLOG/ 0.1 2.47e+008 0.704 2596.2/
PLOG/ 1 1.42e+010 0.209 3934.18/
PLOG/ 10 3.45e+013 -0.726 6944.28/
PLOG/ 100 3.31e+014 -0.866 10965.7/
PLOG/ 1000 16.5 3.17 9399.76/

!-----------------------------------------------------------
!------------- END ALLYL + HO2 MECHANISM   -----------------
!-----------------------------------------------------------









                      
END