! ************************************************************************
! ************************************************************************
! ******************* For further documentation of mechanism:  ***********
! ******************* see references below and their citations ***********
! ************************************************************************
! ************************************************************************
!
! Hydrocarbon subset
!
! H. Hashemi, J.M. Christensen, S. Gersen, H. Levinsky, S.J. Klippenstein, P. Glarborg, 
! “High-Pressure Oxidation of Methane”, Combust. Flame 172 (2016) 349-364.
!
! J. Gimenez-Lopez, C.T. Rasmussen, H. Hashemi, M.U. Alzueta, Y. Gao, P. Marshall, C.F. Goldsmith, P. Glarborg, 
! “Experimental and Kinetic Modeling Study of C2H2 Oxidation at High Pressure, Int. J. Chem. Kinet. 48 (2016) 724-738.
!
! H. Hashemi, J.G. Jacobsen, C.T. Rasmussen, J.M. Christensen, P. Glarborg, S. Gersen, M. van Essen, H.B. Levinsky, S.J. Klippenstein, 
! “High-Pressure Oxidation of Ethane”, Combust. Flame 182 (2017) 150-166.
! 
! 
! Nitrogen subset
!
! P. Glarborg, J.A. Miller, B. Ruscic, S.J. Klippenstein, 
! “Modeling Nitrogen Chemistry in Combustion”, 
! Prog. Energy Combust. Sci. 67 (2017) 31-68. 
!
!
 ELEMENTS
O  H  C  N HE AR  
 END  
!
 SPECIES  
N2  
H2 O2 O3 H O OH HO2 H2O H2O2 
!
CO CO2 
!
CH4 CH3 CH2 CH2(S) CH C
CH3OH CH3O CH2OH CH2O HCOH HCO CO HOCO CO2 HOCHO OCHO HOCH2O    
CH3OOH CH3OO CH2OOH        
C2H6 C2H5 C2H4 C2H3 C2H2 H2CC C2H C2
CH3CH2OH CH3CHOH CH3CH2O CH2CH2OH CH3CHO CH2CHOH 
cC2H4O CHCHOH cC2H3O CH2CHO CH3CO CH2CO CHCHO HCCOH HCCO C2O
CH3CH2OOH CH3CH2OO CH3CHOOH CH2CH2OOH CH2CHOOH
HOCH2CH2OO CH2CHOO
OCHCHO OCHCO
CH3C(O)OOH CH3C(O)OO CH3C(O)O
!
NO HCN NH3
NH2 NH N NNH N2H4 N2H3 N2H2 H2NN 
NH2OH H2NO HNOH HNO HON NO2 HONO HNO2 NO3 HONO2 N2O
HNC CN HNCO HOCN HCNO NCO
NCN HNCN NCNO NCNOH HNCNH NCCN
!  
CH3NO CH2NO C2H5NO CH3CHNO CH2CHNO CHCHNO!
CH3NO2 CH2NO2 C2H5NO2 CH2CH2NO2 CH3CHNO2 
CH3ONO CH3ONO2 CH3CH2ONO CH3CH2ONO2 
!
CH3NH2 CH2NH2 CH3NH CH2NH H2CN HCNH 
CH3CH2NH2 CH2CH2NH2 CH3CHNH2 CH3CH2NH CH2CHNH2 CH3CHNH CH2CHNH CH2CNH2 CH3CNH CH3CHN CHCHNH2 
CH3CN CHCNH2 CH2CNH CH2CHN CH2CHN(S) c-C2H3N CH2CN CHCNH H2NCHO H2NCO 
CH3NHCH3 CH3NHCH2 CH3NCH3 CH3NCH2 CH2NCH2 CH3NCH 
!
AR HE N2
!
END
!
!
 REACTIONS
!
! *****************************************************************************
!    H2/O2 subset                                                             *
! *****************************************************************************
!
H+O2=O+OH                            1.0E14   0.000   15286 !
! Hong et al., Proc. Comb. Inst. 33:309-316 (2011)
!
O+H2=OH+H                            3.8E12   0.000    7948 ! 
 DUPLICATE                                                  !
O+H2=OH+H                            8.8E14   0.000   19175 ! 
 DUPLICATE                                                  !
! Baulch DL Bowman CT Cobos CJ Cox RA Just Th Kerr JA Pilling MJ Stocker D Troe J Tsang W Walker RW Warnatz J JPCRD 34:757-1397 2005
!
OH+H2=H+H2O                          2.2E08   1.510    3430 ! 
! Michael and Sutherland, J. Phys. Chem. 92:3853 (1988)
!
!OH+OH=O+H2O                          1.4E07   1.689   -1167 !
! DUPLICATE
!OH+OH=O+H2O                         -2.7E10   0.567       0 !
! DUPLICATE
! M. Sangwan, L. N. Krasnoperov, J Phys Chem A 116 (2012) 11817–11822.
OH+OH=O+H2O                          2.0E07   1.651     631 !   
 DUPLICATE
OH+OH=O+H2O                          2.6E11  -0.057    -827 ! 
 DUPLICATE
! HH: Refitted (400-3000 K) for better stability of the solvers (avoiding negative 'A') 16-04-08
!
H2+M=H+H+M                           4.6E19  -1.400  104380 !
 H2/2.5/ H2O/12/ CO/1.9/ CO2/3.8/ AR/0/ 
H2+AR=H+H+AR                         5.8E18  -1.100  104380 !
! Tsang and Hampson, J. Phys. Chem. Ref. Data, 15:1087 (1986) 
!
H+O+M=OH+M                           4.7E18  -1.000       0 !
 H2/2.5/  H2O/12/ AR/0.75/ CO/1.9/  CO2/3.8/
! Tsang and Hampson, J. Phys. Chem. Ref. Data, 15:1087 (1986) 
!
O+O+M=O2+M                           1.9E13   0.000   -1788 ! 
 H2/2.5/ H2O/12/ AR/0/ CO/1.9/ CO2/3.8/
! Tsang W Hampson RF JPCRD 15:1087 1986
!
H2O+M = H+OH+M                       6.1E27  -3.322  120790 !
 H2/3/ H2O/0/ N2/2/ O2/1.5/ CO/1.9/ CO2/3.8/
! Srinivasan and Michael, Int. J. Chem. Kinetic. 38 (2006)
! Rate constant is for Ar with efficiencies from Michael et al., J. Phys. Chem. A, 106 (2002)
! Efficiencies for CO and CO2 taken from Li et al., Int. J. Chem. Kinet. 36:566-575 (2004)
H2O+H2O = H+OH+H2O                   1.0E26  -2.440  120180 !
! Srinivasan and Michael, Int. J. Chem. Kinetic. 38 (2006)
!                        !   
!=================================================================================
! MAIN BATH GAS IS N2 (comment this reaction otherwise)
!
H+O2(+M)=HO2(+M)                     4.7E12   0.440       0 !
 LOW/6.366E20 -1.72  5.248E02/
 TROE/0.5  1E-30  1E30/
 H2/2/ H2O/14/ O2/0.78/ CO/1.9/ CO2/3.8/ AR/0.67/ 
!=================================================================================
! MAIN BATH GAS IS AR (comment this reaction otherwise)
!
!H+O2(+M)=HO2(+M)                     4.7E12   0.440       0 !
! LOW/9.042E19 -1.50  4.922E02/
! TROE/0.5 1E-30  1E30/
! H2/3/ H2O/21/ O2/1.1/ CO/2.7/ CO2/5.4/ N2/1.5/
!=================================================================================
! High-pressure limit from Troe, Proc. Comb. Inst. 28:1463-1469 (2000)
! Low-pressure  limit from Michael et al., J. Phys. Chem. A 106:5297-5313
! Centering factors from Fernandes et al., Phys. Chem. Chem. Phys. 10:4313-4321 (2008)
!
HO2+H=H2+O2                          2.8E06   2.090   -1451 !
! Michael et al., Proc. Comb. Inst. 28:1471 (2000)                   
! Scaled by 0.75 Burke et al. (2012)
! 
HO2+H=OH+OH                          7.1E13   0.000     295 !
! Mueller et al., Int. J. Chem. Kinetic. 31:113 (1999) 
!
HO2+H=H2O+O                          1.4E12   0.000       0 ! 
! Baulch DL Bowman CT Cobos CJ Cox RA Just Th Kerr JA Pilling MJ Stocker D Troe J Tsang W Walker RW Warnatz J JPCRD 34:757-1397 2005
!
HO2+O=O2+OH                          2.9E10   1.000    -724 !
! Fernandez-Ramos and Varandas, J. Phys. Chem. A 106:4077-4083 (2002)
! Scaled by 0.60 by Burke et al. 2012
!
HO2+OH = H2O+O2                      1.9E20  -2.490     584 !
 DUPLICATE
HO2+OH = H2O+O2                      1.2E09   1.240   -1310 !
 DUPLICATE
! M. P. Burke, S. J. Klippenstein, L. B. Harding, Proc Combust Inst 34 (2013) 547–555.
!
HO2+HO2=H2O2+O2                      1.2E09   0.7712  -1825 !
 DUPLICATE
HO2+HO2=H2O2+O2                      1.3E12   0.295    7397 !                   	
   DUPLICATE
! D. D. Y. Zhou, K. Han, P. Zhang, L. B. Harding, M. J. Davis, R. T. Skodje, J Phys Chem A 116 (2012) 2089–2100.
!
H2O2(+M) = OH+OH(+M)                 2.0E12   0.900   48749 !
 LOW/                                2.5E24  -2.300   48749/
 TROE/0.43 1E-30 1E30/
 AR/1/ H2O/7.5/ CO2/1.6/ N2/1.5/ O2/1.2/ H2O2/7.7/ H2/3.7/ CO/2.8/
! Troe, Combust. Flame 158:594-601 (2011)
! Efficiencies for H2 and CO taken from Li et al., Int. J. Chem. Kinet. 36:566-575 (2004)
!
H2O2+H=H2O+OH                        2.4E13   0.000    3970 !
! Tsang and Hampson, J. Phys. Chem. Ref. Data, 15:1087 (1986)
!
H2O2+H=HO2+H2                        4.8E13   0.000    7950 !
! Tsang and Hampson, J. Phys. Chem. Ref. Data, 15:1087 (1986)
!
H2O2+O=HO2+OH                        9.6E06   2.000    3970 ! 
! Tsang W Hampson RF JPCRD 15:1087 1986
!
H2O2+OH=HO2+H2O                      1.7E12   0.000     318 !
   DUPLICATE
H2O2+OH=HO2+H2O                      7.6E13   0.000    7270 !
   DUPLICATE
! Hong et al., J. Phys. Chem. A  114 (2010) 5718–5727
!
!
! *****************************************************************************
!    CO/CO2 subset                                                            *
! *****************************************************************************
!
CO+O(+M)=CO2(+M)                     1.8E10   0.000    2384 ! 
 LOW  /                              1.4E24  -2.790    4191/                                  ! 
 TROE /1.0 1E-30 1E30 1E30/                                 ! 
 H2/2.5/ H2O/12/ CO/1.9/ CO2/3.8/                           !
! Mueller MA Yetter RA Dryer FL IJCK 31:705 1999
!
CO+OH=CO2+H                          8.7E05   1.730    -685 !
 PLOG/  0.01315                      2.1E05   1.900   -1064/
 PLOG/  0.1315                       2.5E05   1.880   -1043/
 PLOG/  1.315                        8.7E05   1.730    -685/				
 PLOG/ 13.158                        6.8E06   1.480      48/
 PLOG/ 131.58                        2.3E07   1.350     974/
! J.P. Senosiain, S.J. Klippenstein, J.A. Miller, Proc. Combust. Inst. 30 (2005) 945-953.
!
CO+OH=HOCO                           2.0E20  -3.500    1309 !  1.0 atm interpolation - LPL (JPS,SJK,&JAM 30th Symp)
 PLOG/ 0.013158                      1.7E15  -2.680     859/						  
 PLOG/ 0.13158                       5.9E18  -3.350     887/					
 PLOG/ 1.3158	                     2.6E20  -3.500    1309/						      
 PLOG/ 13.158	                     7.1E20  -3.320    1763/					
 PLOG/ 131.58                        1.1E20  -2.780    2056/	
! J.P. Senosiain, S.J. Klippenstein, J.A. Miller, Proc. Combust. Inst. 30 (2005) 945-953.
!
CO+HO2=CO2+OH                        1.6E05   2.180   17943 !
! You X Wang H Goos E Sung C-J Klippenstein SJ JCPA 111:4031-4042 2007
! 
CO+O2=CO2+O                          4.7E12   0.000   60500 ! 
! Bacskay GB Mackie JC JPCA 109:2019-2025 2005
! 
CO+H2O2=HOCO+OH                      3.6E04   2.500   28660 ! 
! P Glarborg P Marshall CPL 475 (2009) 40-43
!
HOCO(+M)=CO2+H(+M)                   8.2E11   0.413   35335 !
 LOW  /                              6.0E26  -3.148   37116 /                               !            
 TROE / 0.39 1.0E-30 1.0E30 /                               ! Fc = 0.39
! DM Golden GP Smith AB McEwen C-L Yu B Eiteneer M Frenklach GL Vaghjiani AR Ravishankara FP Tully J Phys Chem. A 102 (1998) 8598-8606.
!
HOCO+H=CO2+H2                        3.1E17  -1.3475    555 !            
! H.G. Yu, J.S. Francisco, J. Chem. Phys. 128 (2008) 244315.
! P. Marshall, P. Glarborg, Proc. Combust. Inst. 35 (2015) 153-160 (300-1000 K, fit).
!
HOCO+H=CO+H2O                        6.0E15  -0.525    2125 !            
! H.G. Yu, J.S. Francisco, J. Chem. Phys. 128 (2008) 244315.
! P. Marshall, P. Glarborg, Proc. Combust. Inst. 35 (2015) 153-160 (300-1000 K, fit).
!
HOCO+O=CO2+OH                        9.0E12   0.000       0 !            
! H.G. Yu, J.T. Muckerman, J.S. Francisco, J. Chem. Phys. 127 (2007) 094302.
!
HOCO+OH=CO2+H2O                      4.6E12   0.000     -89 ! 
 DUPLICATE                                                  !
HOCO+OH=CO2+H2O                      9.5E06   2.000     -89 ! 
 DUPLICATE                                                  !
! Yu H-G Muckerman JT Francisco JS JPCA 109:5230-5236 2005
!
HOCO+HO2=CO2+H2O2                    4.0E13   0.000       0 ! 
! H.G. Yu, G. Poggi, J.S. Francisco, J.T. Muckerman, J. Chem. Phys. 129 (2008) 214307.
!
HOCO+O2=CO2+HO2                      4.0E09   1.000       0 !         
! H.G. Yu, J.T. Muckerman, J. Phys. Chem. A 110 (2006) 5312-5316.
! P. Marshall, P. Glarborg, Proc. Combust. Inst. 35 (2015) 153-160 (300-1000 K, fit).
!
!
! *****************************************************************************
!    CH2O subset                                                              *
! *****************************************************************************
! 
CH2O(+M)=HCO+H(+M)                   8.0E15   0.000   87726 ! 
 LOW /                               1.3E36  -5.500   93932/        
! Troe J JPCA 109:8320-8328 2005
! J. Troe, J. Phys. Chem. A 111 (2007) 3862–3867. 
!
CH2O(+M)=CO+H2(+M)                   3.7E13   0.000   71969 ! 
 LOW /                               4.4E38  -6.100   93932/  
! Troe J JPCA 109:8320-8328 2005
! J. Troe, J. Phys. Chem. A 111 (2007) 3862–3867. 
!
!CH2O+H=HCO+H2                        5.9E03   3.130    1510 ! 
! Wang SK Dames EE Davidson DF Hanson RK, J. Phys. Chem. A  118 10201-10209 2014
! applying prompt HCO dissociation - Labbe et al., J. Phys. Chem. Lett. 2016:
CH2O+H=HCO+H2 	                     1.4E23  -2.355   17519 ! 1 atm
 PLOG/0.04                           7.4E23  -2.732   16379/ 
 PLOG/1	                             1.4E23  -2.355   17519/
 PLOG/10                             7.3E23  -2.665   17634/  
 PLOG/0.04                           2.1E10   1.057    3720/ !
 PLOG/1                              1.6E15  -0.444    5682/ !
 PLOG/10                             4.2E09   1.294    3591/ !
CH2O+H=H+CO+H2                       5.1E07   2.182   11524	
 PLOG/0.04                           7.2E08   1.903   11733/
 PLOG/1                              5.1E07   2.182   11524/
 PLOG/10	                     1.1E09   1.812   13163/
!
!CH2O+O=HCO+OH                        4.2E11   0.570    2760 ! 
! Baulch DL Bowman CT Cobos CJ Cox RA Just Th Kerr JA Pilling MJ Stocker D Troe J Tsang W Walker RW Warnatz J JPCRD 34:757-1397 2005
! applying prompt HCO dissociation - Labbe et al., J. Phys. Chem. Lett. 2016:
CH2O+O=HCO+OH                        5.6E31  -5.189   19968  
 DUPLICATE
CH2O+O=HCO+OH                        1.4E15  -0.530    4011 
 DUPLICATE
CH2O+O=H+CO+OH                       2.5E21  -1.903   22674
!
!CH2O+OH=HCO+H2O                      2.4E07   1.830   -1116 ! 
! S. Wang, D. F. Davidson, R. K. Hanson, Proc. Combust. Inst. 35 473-480 2015
! applying prompt HCO dissociation - Labbe et al., J. Phys. Chem. Lett. 2016:
CH2O+OH=HCO+H2O	                     1.9E09    1.256    -302
 PLOG/0.04                           3.6E09    1.167    -206/  !
 PLOG/1	                             1.9E09    1.256    -302/  !
 PLOG/10                             1.1E09    1.330    -392/  !
CH2O+OH=H+CO+H2O                     7.2E10    0.892    9310	
 PLOG/0.04                           7.0E10    0.911    8646/
 PLOG/1                              7.2E10    0.892    9310/
 PLOG/10                             8.4E10    0.879    9843/
!
!CH2O+HO2=HCO+H2O2                    4.1E04   2.500   10206 ! 
! Eiteneer B Yu CL Goldenberg M Frenklach M JPCA 102:5196 1998
! applying prompt HCO dissociation - Labbe et al., J. Phys. Chem. Lett. 2016:
!CH2O+HO2=HCO+H2O2                    4.1E04   2.500   10206 ! 
! DUPLICATE
!CH2O+HO2=HCO+H2O2                   -2.5E14   0.027   30133 
! DUPLICATE
CH2O+HO2=HCO+H2O2                    4.4E08   1.298   12129 ! refit
CH2O+HO2=H+CO+H2O2                   2.5E14   0.027   30120
!
!CH2O+O2=HCO+HO2                      2.4E05   2.500   36461 ! 
! Baulch DL Bowman CT Cobos CJ Cox RA Just Th Kerr JA Pilling MJ Stocker D Troe J Tsang W Walker RW Warnatz J JPCRD 34:757-1397 2005
! applying prompt HCO dissociation - Labbe et al., J. Phys. Chem. Lett. 2016:
!CH2O+O2=HCO+HO2                      2.4E05   2.500   36461 
! DUPLICATE
!CH2O+O2=HCO+HO2                     -1.4E15    0.027   56388 
! DUPLICATE
CH2O+O2=HCO+HO2	                     1.8E16   -0.639   45400 ! refit
DUPLICATE
CH2O+O2=HCO+HO2                      6.6E08    1.360   37324 ! refit
DUPLICATE
CH2O+O2=H+CO+HO2                     1.4E15    0.027   56388 
!
HCO(+M)=H+CO(+M)                     4.9E16  -0.930   19724 !    					
 LOW/                                7.4E21  -2.360   19383/								
 TROE/ 0.103 139 10900 4550/								
 N2/1.5/ HE/1.3/ O2/1.5/ CO/1.5/ H2/2/  CH4/5/ CO2/3./ H2O/15./
! Yang et al., 8th U. S. National Combustion Meeting, 2013, 070RK-0163.
!
HCO+H=CO+H2                          1.1E14   0.000       0 ! 
! Friedrichs G Herbon JT Davidson DF Hanson RK CPPC 4:5778-5788 2002
!
HCO+O=CO+OH                          3.0E13   0.000       0 ! 
! Baulch DL Cobos CJ Cox RA Esser C Frank P Just Th Kerr JA Pilling MJ Troe J Walker RW Warnatz J JPCRD 21:403 1992
!
HCO+O=CO2+H                          3.0E13   0.000       0 ! 
! Baulch DL Cobos CJ Cox RA Esser C Frank P Just Th Kerr JA Pilling MJ Troe J Walker RW Warnatz J JPCRD 21:403 1992
!
HCO+OH=CO+H2O                        1.1E14   0.000       0 ! 
! Baulch DL Bowman CT Cobos CJ Cox RA Just Th Kerr JA Pilling MJ Stocker D Troe J Tsang W Walker RW Warnatz J JPCRD 34:757-1397 2005
!
HCO+O2=CO+HO2                        6.9E06   1.900   -1369 ! 
! FassheberN Friedrichs G Marshall P Glarborg P J. Phys. Chem. A 119 (2015) 7305-7315.
!
HCO+HO2=CO2+OH+H                     3.0E13   0.000       0 !
! Tsang W Hampson RF JPCRD 15:1087 1986  
!
HCO+HCO=CO+CH2O                      2.7E13   0.000       0 ! 
! Friedrichs G Herbon JT Davidson DF Hanson RK CPPC 4:5778-5788 2002
!
!
! *****************************************************************************
!    CH4 subset                                                               *
! *****************************************************************************
!  
CH3+H(+M)=CH4(+M)                    2.3E14   0.032     144 ! 
 LOW /2.7E35 -5.345 3380/
 TROE /0.395 163.5 4250.3 1253676/ 
 AR/0.61/ CH4/3.85/  H2O/10/ H2/4/ CO/1.4/ CO2/4/ C2H6/4.5/ N2/1.4/ HE/2/ ! 
! J. Troe, V. G. Ushakov, J. Chem. Phys. 136 (2012) 214309
!
CH4+H=CH3+H2                         4.1E03   3.156    8755 ! 
! Sutherland JW Su M-C Michael JV IJCK 33:669-684 2001
!
CH4+O=CH3+OH                         4.4E05   2.500    6577 ! 
! Baulch DL Bowman CT Cobos CJ Cox RA Just Th Kerr JA Pilling MJ Stocker D Troe J Tsang W Walker RW Warnatz J JPCRD 34:757-1397 2005
!
CH4+OH=CH3+H2O                       1.0E06   2.182    2506 ! 
! Srinivasan NK Su M-C Sutherland JW Michael JV JPCA 109:7902-7914 2005
!
CH4+HO2=CH3+H2O2                     4.7E04   2.500   21000 ! 
! Baulch DL Bowman CT Cobos CJ Cox RA Just Th Kerr JA Pilling MJ Stocker D Troe J Tsang W Walker RW Warnatz J JPCRD 34:757-1397 2005
!
CH4+O2=CH3+HO2			     2.0E05   2.745    51714
!CH3+HO2=CH4+O2                       1.2E05   2.228    3022 ! rv (not in paper)
! Srinivasan, Michael, Harding, Klippenstein, Combust Flame 149, 104 (2007)
!
CH4+CH2=CH3+CH3                      4.3E12   0.000   10030 ! 
! Bohland T Dobe S Wagner HGg BBPC 89:1110 (1985)
!
CH4+CH2(S)=CH3+CH3                   4.3E13   0.000       0 ! 
! Tsang W Hampson RF JPCRD 15:1087 1986  
!
CH4+CH=C2H4+H                        3.0E13   0.000    -400 !           
! Baulch DL Cobos CJ Cox RA Esser C Frank P Just Th Kerr JA Pilling MJ Troe J Walker RW Warnatz J JPCRD 21:403 1992
!
CH3+M=CH+H2+M                        3.1E15   0.00    80871 ! 
! V Vasudevan, RK Hanson, DM Golden, CT Bowman, DF Davidson, J. Phys. Chem. A 2007, 111, 4062-4072
!
CH3+M=CH2+H+M                        2.2E15   0.00    82659 ! 
! V Vasudevan, RK Hanson, DM Golden, CT Bowman, DF Davidson, J. Phys. Chem. A 2007, 111, 4062-4072
!
CH3+H=CH2+H2                         1.2E06   2.43    11941 !
! SJK unpublished; see P. Glarborg, J.A. Miller, B. Ruscic, S.J. Klippenstein, Prog. Energy Combust. Sci. 67 (2018) 31-68. 
!
CH2(S)+H2=CH3+H                      7.6E13   0.000       0 ! #r
! P-F Lee, H Matsui, N-S Wang J. Phys. Chem. A 2012, 116, 1891-1896 
!
CH3+O=CH2O+H                         6.9E13   0.000       0 ! 
! Baulch DL Bowman CT Cobos CJ Cox RA Just Th Kerr JA Pilling MJ Stocker D Troe J Tsang W Walker RW Warnatz J JPCRD 34:757-1397 2005
! Press JM Fockenberg C Flynn GW JPCA 104:6755-6763 2000 (82%)
!
CH3+O=H2+CO+H                        1.5E13   0.000       0 ! 
! Baulch DL Bowman CT Cobos CJ Cox RA Just Th Kerr JA Pilling MJ Stocker D Troe J Tsang W Walker RW Warnatz J JPCRD 34:757-1397 2005
! Press JM Fockenberg C Flynn GW JPCA 104:6755-6763 2000 (18%)
!
CH3+OH=CH2+H2O                       4.3E04   2.568    3997 ! 
! Jasper AW Klippenstein SJ Harding LB Ruscic B JPCA 111:3932-3950 2007
! 300-3000 K abstraction on the triplet surface (not in paper)
!CH3+OH=CH2+H2O                       1.1E03   3.000    2780 ! 
! Wilson C Balint-Kurti GG JPCA 102:1625-1631 1998 (atm pres)
!
CH3+OH=CH3OH                         5.6E30  -5.64842  4214 ! 1.3 atm
PLOG /    0.001316                   6.9E30  -6.63794  2829/ 
PLOG /    0.013158                   1.1E32  -6.63695  3364/ 
PLOG /    0.131579                   1.5E32  -6.36057  3954/
PLOG /    1.315789                   5.6E30  -5.64842  4214/
PLOG /   13.157895                   1.4E27  -4.33275  3685/
PLOG /  131.578947                   1.3E22  -2.66369  2451/
! Jasper AW Klippenstein SJ Harding LB Ruscic B JPCA 111:3932-3950 2007
!
!CH3OH(+M)=CH3+OH(+M)                 2.1E18  -0.6148  92540 ! 
! LOW  /2.60E49 -8.80 101500/                                ! 
! TROE /0.7656 1910 59.51 9374/                              !
! Jasper AW Klippenstein SJ Harding LB Ruscic B JPCA 111:3932-3950 2007
!
CH3+OH=CH2(S)+H2O                    4.3E15  -0.85972  1888 ! 1.3 atm 
 PLOG /   0.001316                   1.1E14  -0.45845  -496 /
 PLOG /   0.013158                   2.2E14  -0.53832  -220 /
 PLOG /   0.131579                   1.2E15  -0.72747   600 /
 PLOG /   1.315789                   4.3E15  -0.85972  1888 /
 PLOG /  13.157895                   4.4E14  -0.53864  2932 /
 PLOG / 131.578947                   6.1E10   0.59560  2923 /
! Jasper AW Klippenstein SJ Harding LB Ruscic B JPCA 111:3932-3950 2007
!
CH3+OH=H2+CH2O                       3.6E12  -0.53245  2042 ! 1.3 atm
 PLOG /   0.001316                   3.9E09   0.25392 -1221 /
 PLOG /   0.013158                   2.0E10   0.06025  -624 /
 PLOG /   0.131579                   2.8E11  -0.24957   498 /
 PLOG /   1.315789                   3.6E12  -0.53245  2042 /
 PLOG /  13.157895                   2.2E12  -0.43166  3415 /
 PLOG / 131.578947                   2.4E09   0.45344  3791 /
! Jasper AW Klippenstein SJ Harding LB Ruscic B JPCA 111:3932-3950 2007
!
CH3+OH=H+CH2OH                       5.6E10   0.73966  3971 ! 1.3 atm
 PLOG /   0.001316                   8.4E09   0.96279  3230 /
 PLOG /   0.013158                   8.4E09   0.96279  3230 /
 PLOG /   0.131579                   1.0E10   0.94201  3295 /
 PLOG /   1.315789                   5.6E10   0.73966  3971 /
 PLOG /  13.157895                   5.5E11   0.48620  5443 /
 PLOG / 131.578947                   2.5E10   0.90920  6402 /
! Jasper AW Klippenstein SJ Harding LB Ruscic B JPCA 111:3932-3950 2007
!
CH3+OH=H+CH3O                        7.9E08   1.06457 11859 ! 1.3 atm
 PLOG /   0.001316                   7.9E08   1.06509 11859 /
 PLOG /   0.013158                   7.9E08   1.06509 11859 /
 PLOG /   0.131579                   7.9E08   1.06509 11859 /
 PLOG /   1.315789                   7.9E08   1.06457 11859 /
 PLOG /  13.157895                   1.0E09   1.03413 11970 /
 PLOG / 131.578947                   3.1E09   0.92189 12981 /
! Jasper AW Klippenstein SJ Harding LB Ruscic B JPCA 111:3932-3950 2007
!
CH3+OH=H2+HCOH                       6.5E11   0.11155   932 ! 1.3 atm
 PLOG /   0.001316                   1.2E09   0.83024 -2323 /
 PLOG /   0.013158                   6.4E09   0.63305 -1701 /
 PLOG /   0.131579                   8.0E10   0.33964  -565 /
 PLOG /   1.315789                   6.5E11   0.11155   932 /
 PLOG /  13.157895                   2.1E11   0.29509  2200 /
 PLOG / 131.578947                   9.4E07   1.28631  2424 /
! Jasper AW Klippenstein SJ Harding LB Ruscic B JPCA 111:3932-3950 2007
! cis and trans products are combined as HCOH
!
CH3+HO2=CH3O+OH                      1.0E12   0.2688   -688 ! 
! Jasper, Klippenstein, Harding, Proc. Combust. Inst. 32, 279 (2009)
! OBS typo in H. Hashemi, J.M. Christensen, S. Gersen, H. Levinsky, S.J. Klippenstein, P. Glarborg, Combust. Flame 172 (2016) 349-364 mechanism (sign of E)
!
CH3+O2=CH3O+O                        7.5E12   0.000   28297 ! 
! Srinivasan NK Su M-C Sutherland JW Michael JV JPCA 109:7902-7914 2005
!
CH3+O2=CH2O+OH                       1.9E11   0.000    9842 ! 
! Srinivasan NK Su M-C Sutherland JW Michael JV JPCA 109:7902-7914 2005
!
CH3+O2=CH3OO                         5.0E22  -3.850    2000 ! 1 atm
 PLOG/ 0.01		             6.8E24  -3.000       0/! k0 
 PLOG/ 1.0		             5.0E22  -3.850    2000/  
 PLOG/10.0			     3.4E21  -3.200    2300/  
 PLOG/20.0                           4.1E20  -2.940    1900/  
 PLOG/20.0                           3.3E29  -5.600    6850/ 
 PLOG/50.0                           2.8E18  -2.200    1400/ 
 PLOG/50.0                           5.6E28  -5.250    6850/
 PLOG/100.0                          1.1E19  -2.300    1800/
 PLOG/100.0                          4.1E30  -5.700    8750/ 
! Fernandes RX Luther K Troe J JPCA 110:4442-4449 2006 (fit to data)
!
!CH2O+CH3=HCO+CH4                     3.2E01   3.360    4310 ! 
! Baulch DL Bowman CT Cobos CJ Cox RA Just Th Kerr JA Pilling MJ Stocker D Troe J Tsang W Walker RW Warnatz J JPCRD 34:757-1397 2005
! applying prompt HCO dissociation - Labbe et al., J. Phys. Chem. Lett. 2016:
!CH2O+CH3=HCO+CH4                     3.2E01   3.360    4310 
! DUPLICATE
!CH2O+CH3=HCO+CH4                    -1.9E11   0.887   24237 
! DUPLICATE
CH2O+CH3=HCO+CH4                     3.5E05   2.157   6234 ! refit
CH2O+CH3=H+CO+CH4                    1.9E11   0.887   24224
!
CH3+HCO=CH4+CO                       1.8E20  -2.300    4781 ! 1 atm
 PLOG/ 5.00E-02                      2.9E18  -1.840    2134/
 PLOG/ 1.00E-01                      8.7E18  -1.970    2684/
 PLOG/ 1.00E00                       1.8E20  -2.300    4781/
 PLOG/ 1.00E01                       1.1E21  -2.450    7417/
! R. Sivaramakrishnan, J.V. Michael, L.B. Harding, S.J. Klippenstein, J Phys Chem A 2015, 119, 7724-7733.
!
CH3+HCO=CH2CO+H2                     4.9E08   0.750     842! 1 atm
 PLOG/ 5.00E-02                      6.1E06   1.240   -1733/
 PLOG/ 1.00E-01                      1.1E07   1.180   -1303/
 PLOG/ 1.00E00                       4.9E08   0.750     842/
 PLOG/ 1.00E01                       1.6E11   0.109    4387/
! R. Sivaramakrishnan, J.V. Michael, L.B. Harding, S.J. Klippenstein, J Phys Chem A 2015, 119, 7724-7733.
!
CH3+CH3=C2H5+H                       5.4E13   0.000   16055 !
! Baulch DL Bowman CT Cobos CJ Cox RA Just Th Kerr JA Pilling MJ Stocker D Troe J Tsang W Walker RW Warnatz J JPCRD 34:757-1397 2005
!
CH3+CH2=C2H4+H                       1.2E15  -0.3432    153 !      
! Jasper AW Klippenstein SJ Harding LB JPCA 111:8689-8707 2007
!
CH3+CH2(S)=C2H4+H                    2.0E13   0.000       0 ! 
! Tsang W Hampson RF JPCRD 15:1087 1986  
!
CH3+CH=C2H3+H                        3.0E13   0.000       0 ! 
! Glarborg P Alzueta MU Dam-Johansen K Miller JA CF 115:1 1998
! JAM est
!
CH3+C=C2H2+H                         5.0E13   0.000       0 ! 
! Glarborg P Alzueta MU Dam-Johansen K Miller JA CF 115:1 1998
! JAM est
!
CH2+M=CH+H+M                         5.6E15  0.000    89000 !           
! Bauerle S Klatt M Wagner HGg BBPC 99:870 1995
!
CH2+M=C+H2+M                         5.8E12  0.500    68500 !          
! Bauerle S Klatt M Wagner HGg BBPC 99:870 1995
!
CH2+H=CH+H2                          1.6E14  0.000        0 !   
! See P. Glarborg, J.A. Miller, B. Ruscic, S.J. Klippenstein, Prog. Energy Combust. Sci. 67 (2018) 31-68. 
!CH2+H=CH+H2                          1.2E14  0.000        0 !          
! Baulch DL Bowman CT Cobos CJ Cox RA Just Th Kerr JA Pilling MJ Stocker D Troe J Tsang W Walker RW Warnatz J JPCRD 34:757-1397 2005
!
CH2+O=CO+H+H                         1.2E14  0.000      536 !           
! Baulch DL Bowman CT Cobos CJ Cox RA Just Th Kerr JA Pilling MJ Stocker D Troe J Tsang W Walker RW Warnatz J JPCRD 34:757-1397 2005
!
CH2+O=CO+H2                          8.0E13  0.000      536 !            
! Baulch DL Bowman CT Cobos CJ Cox RA Just Th Kerr JA Pilling MJ Stocker D Troe J Tsang W Walker RW Warnatz J JPCRD 34:757-1397 2005
!
CH2+OH=CH2O+H                        2.8E13  0.1228    -161 !            
! A.W. Jasper, S.J. Klippenstein, L.B. Harding, J. Phys. Chem. A 111 (2007) 8699-8707.
!
CH2+OH=CH+H2O                        8.6E05  2.019     6776 !           
! A.W. Jasper, S.J. Klippenstein, L.B. Harding, J. Phys. Chem. A 111 (2007) 8699-8707.
!
CH2+O2=CO2+H+H                       2.1E09   0.9929   -269 ! 
! SJK unpublished (2013) 
!
CH2+O2=CH2O+O                        2.2E09   1.080    1196 ! #r            
! SJK unpublished (2015), final value used in P. Glarborg, J.A. Miller, B. Ruscic, S.J. Klippenstein, Prog. Energy Combust. Sci. 67 (2018) 31-68 
!CH2+O2=CH2O+O                        1.3E06   2.420    1604 !            
! Preliminary value listed in P. Glarborg, J.A. Miller, B. Ruscic, S.J. Klippenstein, Prog. Energy Combust. Sci. 67 (2018) 31-68 
!
CH2+CO2=CO+CH2O                      1.0E11   0.000    1000 ! 
! Glarborg P Miller JA Kee RJ CF 65:177 1986 est
!
CH2+CH2=C2H2+H+H                     7.0E13   0.0022      8 !           
! Jasper AW Klippenstein SJ Harding LB JPCA 111:8689-8707 2007
!
CH2+CH2=C2H2+H2                      1.8E13   0.0022      8 !           
! Jasper AW Klippenstein SJ Harding LB JPCA 111:8689-8707 2007
!
CH2+CH=C2H2+H                        4.0E13   0.000       0 ! 
! Glarborg P Alzueta MU Dam-Johansen K Miller JA CF 115:1 1998
! JAM est
!
CH2+C=C2H+H                          5.0E13   0.000       0 ! 
! Glarborg P Alzueta MU Dam-Johansen K Miller JA CF 115:1 1998
! JAM est
!
CH2(S)+N2=CH2+N2                     1.3E13   0.000     430 ! #r 
! Hayes F Lawrance WD Staker WS King KD JPC 100:11314 1996 (N2)
! Typo in listing (E=400) in P. Glarborg, J.A. Miller, B. Ruscic, S.J. Klippenstein, Prog. Energy Combust. Sci. 67 (2018) 31-68 !
CH2(S)+AR=CH2+AR                     1.5E13   0.000     884 ! 
! Hayes F Lawrance WD Staker WS King KD JPC 100:11314 1996
!
CH2(S)+H=CH2+H                       2.0E14   0.000       0 !  
! JAM est
!
CH2(S)+H=CH+H2                       3.0E13   0.000       0 !  
! Tsang W Hampson RF JPCRD 15:1087 1986  
!
CH2(S)+O=CO+2H                       3.0E13   0.000       0 !  
! Tsang W Hampson RF JPCRD 15:1087 1986  
!
CH2(S)+OH=CH2O+H                     3.0E13   0.000       0 !  
! Tsang W Hampson RF JPCRD 15:1087 1986  
!