! Detailed mechanism for natural gas oxidation combined with NOMecha2.0 sub-mechanism for N-species formation
! The present NG mechanism was initially validated by El Bakali et al. in CF137 (2004) 109-128 and in Fuel85 (2006) 896-909
! for low pressure conditions only
! NOMecha2.0 sub-mechanism was validated in "Modeling of NO formation in low pressure flames" by Lamoureux et al.
ELEMENTS
 C H O N AR
END
SPECIES
CH4   C2H6   C2H2   C2H4   C3H6   C3H8 O2 H2 CO CO2 AR
H    O      OH    HO2    H2O  H2O2    HCO    CH3
CH2O    C2H5    CH2   CH3O  CH2OH   C3H3  IC3H7 
NC3H7  C6H5O C2H3   CH3OH CH3HCO  C2H4O   C4H6  
C2H  CH2CO   HCCO  SC3H5   CHOCO  CHOCHO  C2H3O  C2H4O2H
PC3H4   AC3H5  AC3H4  CH3CO  TC3H5  C3H6O  C3H4C   C3H2 
IC4H3 NC4H3    C4H2  C4H7_3  IC4H5 
NC4H5    C4H C6H6    SCH2   C6H5    C2O   C4H4 
H2C4O  C2 C2H2OH  CH  HCCOH 
C  CH2HCO 

PC4H9   SC4H9 IC4H9 TC4H9 IC4H8 IC4H7 UC4H8 T2C4H8 C2C4H8  
NC4H10  IC4H10 NC5H11   IC5H11 C5H11_1 C5H11_2  NC5H12  IC5H12
C5H11_3 C5H10_1 C5H10_2 C5H9_1
IC5H11_1 IC5H11_2  IC5H11_3 IC5H11_4 
C6H13_1    C6H13_2    C6H13_3  C6H11_1 C6H12_1 NC6H14
HCN  NO  HNCO  N2O  NO2
NH3  HNO  HONO  H2NO  N  H2CN  NNH  NH2  NH  N2H2  CN  NCO  C2N2  HOCN
HCNO  NCN  HNC   HNCN
N2 
END
THERMO ALL
 300.000  1000.000  5000.000   
AR                120186AR  1               G  0300.00   5000.00  1000.00      1
 2.50000000E+00 0.00000000E+00 0.00000000E+00 0.00000000E+00 0.00000000E+00    2
-7.45375000E+02 4.36600065E+00 2.50000000E+00 0.00000000E+00 0.00000000E+00    3
 0.00000000E+00 0.00000000E+00-7.45375000E+02 4.36600065E+00                   4
H                 120186H   1               G  0300.00   5000.00  1000.00      1
 2.50000000E+00 0.00000000E+00 0.00000000E+00 0.00000000E+00 0.00000000E+00    2
 2.54716270E+04-4.60117638E-01 2.50000000E+00 0.00000000E+00 0.00000000E+00    3
 0.00000000E+00 0.00000000E+00 2.54716270E+04-4.60117608E-01                   4
H2                121286H   2               G  0300.00   5000.00  1000.00      1
 2.99142337E+00 7.00064411E-04-5.63382869E-08-9.23157818E-12 1.58275179E-15    2
-8.35033997E+02-1.35511017E+00 3.29812431E+00 8.24944174E-04-8.14301529E-07    3
-9.47543433E-11 4.13487224E-13-1.01252087E+03-3.29409409E+00                   4
N2                      N   20   00   00   0G   300.00   5000.00  1000.00      1
 0.29266400E+01 0.14879800E-02-0.56848000E-06 0.10097000E-09-0.67500000E-14    2
-0.92280000E+03 0.59810000E+01 0.32986800E+01 0.14082400E-02-0.39632200E-05    3
 0.56415100E-08-0.24448500E-11-0.10209000E+04 0.39500000E+01                   4
O                 120186O   1               G  0300.00   5000.00  1000.00      1
 2.54205966E+00-2.75506191E-05-3.10280335E-09 4.55106742E-12-4.36805150E-16    2
 2.92308027E+04 4.92030811E+00 2.94642878E+00-1.63816649E-03 2.42103170E-06    3
-1.60284319E-09 3.89069636E-13 2.91476445E+04 2.96399498E+00                   4
O2                121386O   2               G  0300.00   5000.00  1000.00      1
 3.69757819E+00 6.13519689E-04-1.25884199E-07 1.77528148E-11-1.13643531E-15    2
-1.23393018E+03 3.18916559E+00 3.21293640E+00 1.12748635E-03-5.75615047E-07    3
 1.31387723E-09-8.76855392E-13-1.00524902E+03 6.03473759E+00                   4
OH    RUSCIC      121286O   1H   1          G  0300.00   5000.00  1000.00      1
 2.86472886E+00 1.05650448E-03-2.59082758E-07 3.05218674E-11-1.33195876E-15    2
 3.68362875E+03 5.70164073E+00 4.12530561E+00-3.22544939E-03 6.52766910E-06    3
-5.79853643E-09 2.06237379E-12 3.34630913E+03-6.90432960E-01 4.51532273E+03    4
H2O2              120186H   2O   2          G  0300.00   5000.00  1000.00      1
 4.57316685E+00 4.33613639E-03-1.47468882E-06 2.34890357E-10-1.43165356E-14    2
-1.80069609E+04 5.01136959E-01 3.38875365E+00 6.56922581E-03-1.48501258E-07    3
-4.62580552E-09 2.47151475E-12-1.76631465E+04 6.78536320E+00                   4
H2O                20387H   2O   1          G  0300.00   5000.00  1000.00      1
 2.67214561E+00 3.05629289E-03-8.73026011E-07 1.20099639E-10-6.39161787E-15    2
-2.98992090E+04 6.86281681E+00 3.38684249E+00 3.47498246E-03-6.35469633E-06    3
 6.96858127E-09-2.50658847E-12-3.02081133E+04 2.59023285E+00                   4
HO2                20387H   1O   2          G  0300.00   5000.00  1000.00      1
 0.04072191E+02 0.02131296E-01-0.05308145E-05 0.06112269E-09-0.02841164E-13    2
-0.15797240E+03 0.03476029E+02 0.02979963E+02 0.04996697E-01-0.03790997E-04    3
 0.02354192E-07-0.08089024E-11 0.01762273E+04 0.09222724E+02                   4
C                 121286C   1               G  0300.00    5000.00 1000.00      1
 0.02602087E+02-0.01787081E-02 0.09087041E-06-0.11499333E-10 0.03310844E-14    2
 0.08542154E+06 0.04195177E+02 0.02498584E+02 0.08085776E-03-0.02697697E-05    3
 0.03040729E-08-0.11066518E-12 0.08545878E+06 0.04753459E+02                   4
CH                121286C   1H   1          G  0300.00   5000.00  1000.00      1
 0.02196223E+02 0.02340381E-01-0.07058201E-05 0.09007582E-09-0.03855040E-13    2
 0.07086723E+06 0.09178373E+02 0.03200202E+02 0.02072875E-01-0.05134431E-04    3
 0.05733890E-07-0.01955533E-10 0.07045259E+06 0.0333158E+02                    4
CH2 TRIPLET RAD   IU3/03C  1.H  2.   0.   0.G   200.000  6000.000  1000.00     1
 2.96313566E+00 3.31577384E-03-1.16173344E-06 1.91362913E-10-1.21004942E-14    2
 4.60012753E+04 5.82031942E+00 4.05550517E+00-1.40713800E-03 8.86464128E-06    3
-1.04575954E-08 4.24533049E-12 4.57389902E+04 4.69517671E-01                   4
SCH2               31287C   1H   2          G  0300.00   5000.00  1000.00      1
 0.03552888E+02 0.02066788E-01-0.01914116E-05-0.11046733E-09 0.02021349E-12    2
 0.04984975E+06 0.01686570E+02 0.03971265E+02 0.11598191E-02 0.10253689E-05    3
 0.02492550E-07-0.01981266E-10 0.04989367E+06 0.05753207E+00                   4
CH3               121286C   1H   3          G  0300.00   5000.00  1000.00      1
 2.84405160E+00 6.13797410E-03-2.23034522E-06 3.78516080E-10-2.45215903E-14    2
 1.64378086E+04 5.45269728E+00 2.43044281E+00 1.11240987E-02-1.68022034E-05    3
 1.62182872E-08-5.86495262E-12 1.64237813E+04 6.78979397E+00                   4
CH4               121286C   1H   4          G  0300.00   5000.00  1000.00      1
 1.68347883E+00 1.02372356E-02-3.87512864E-06 6.78558487E-10-4.50342312E-14    2
-1.00807871E+04 9.62339497E+00 7.78741479E-01 1.74766835E-02-2.78340904E-05    3
 3.04970804E-08-1.22393068E-11-9.82522852E+03 1.37221947E+01                   4
CO                121286C   1O   1          G  0300.00   5000.00  1000.00      1
 3.02507806E+00 1.44268852E-03-5.63082779E-07 1.01858133E-10-6.91095156E-15    2
-1.42683496E+04 6.10821772E+00 3.26245165E+00 1.51194085E-03-3.88175522E-06    3
 5.58194424E-09-2.47495123E-12-1.43105391E+04 4.84889698E+00                   4
CO2               121286C   1O   2          G  0300.00   5000.00  1000.00      1
 4.45362282E+00 3.14016873E-03-1.27841054E-06 2.39399667E-10-1.66903319E-14    2
-4.89669609E+04-9.55395877E-01 2.27572465E+00 9.92207229E-03-1.04091132E-05    3
 6.86668678E-09-2.11728009E-12-4.83731406E+04 1.01884880E+01                   4
HCCO               32387H   1C   2O   1     G  0300.00  5000.00  1000.00       1
 6.75803000E+00 2.00040000E-03-2.02760700E-07-1.04113180E-10 1.96516400E-14    2
 1.90151300E+04-9.07126200E+00 5.04796500E+00 4.45347800E-03 2.26828200E-07    3
-1.48209450E-09 2.25074100E-13 1.96589100E+04 4.81843900E-01                   4
CH2O              121286C   1H   2O   1     G  0300.00   5000.00  1000.00      1
 2.99560618E+00 6.68132119E-03-2.62895469E-06 4.73715289E-10-3.21251747E-14    2
-1.53203691E+04 6.91257238E+00 1.65273118E+00 1.26314387E-02-1.88816848E-05    3
 2.05003143E-08-8.41323712E-12-1.48654043E+04 1.37848196E+01                   4
HCO               121286H   1C   1O   1     G  0300.000  5000.000 1000.000     1
 0.34738348E+01 0.34370227E-02-0.13632664E-05 0.24928645E-09-0.17044331E-13    2
 0.39594005E+04 0.60453340E+01 0.38840192E+01-0.82974448E-03 0.77900809E-05    3
-0.70616962E-08 0.19971730E-11 0.40563860E+04 0.48354133E+01                   4
CH3O              121686C   1H   3O   1     G  0300.00   5000.00  1000.00      1
 3.77079964E+00 7.87149742E-03-2.65638391E-06 3.94443145E-10-2.11261638E-14    2
 1.27832520E+02 2.92957497E+00 2.10620403E+00 7.21659511E-03 5.33847197E-06    3
-7.37763628E-09 2.07561052E-12 9.78601074E+02 1.31521769E+01                   4
CH3OH             121686C   1H   4O   1     G  0300.00   5000.00  1000.00      1
 4.02906132E+00 9.37659293E-03-3.05025424E-06 4.35879333E-10-2.22472323E-14    2
-2.61579102E+04 2.37819576E+00 2.66011524E+00 7.34150782E-03 7.17005059E-06    3
-8.79319373E-09 2.39057038E-12-2.53534844E+04 1.12326307E+01                   4
CH3HCO            120186C   2O   1H   4     G  0300.00   5000.00  1000.00      1
 5.86865044E+00 1.07942410E-02-3.64553034E-06 5.41291234E-10-2.89684421E-14    2
-2.26456875E+04-6.01294613E+00 2.50569534E+00 1.33699067E-02 4.67195332E-06    3
-1.12814007E-08 4.26356606E-12-2.12458867E+04 1.33508873E+01                   4
CH2OH             120186H   3C   1O   1     G  0250.00   5000.00  1000.00      1
 6.32752037E+00 3.60827078E-03-3.20154726E-07-1.93874999E-10 3.50970473E-14    2
-4.47450928E+03-8.32936573E+00 2.86262846E+00 1.00152725E-02-5.28543581E-07    3
-5.13853982E-09 2.24604103E-12-3.34967871E+03 1.03979378E+01                   4
CH2HCO            120186O   1H   3C   2     G  0300.00   5000.00  1000.00      1
 5.97566986E+00 8.13059136E-03-2.74362446E-06 4.07030409E-10-2.17601714E-14    2
 4.90321777E+02-5.04525089E+00 3.40906239E+00 1.07385740E-02 1.89149250E-06    3
-7.15858306E-09 2.86738515E-12 1.52147656E+03 9.55829048E+00                   4
CH2CO             121686C   2H   2O   1     G  0300.00   5000.00  1000.00      1
 6.03881741E+00 5.80484048E-03-1.92095376E-06 2.79448464E-10-1.45886755E-14    2
-8.58340234E+03-7.65758133E+00 2.97497082E+00 1.21187121E-02-2.34504569E-06    3
-6.46668497E-09 3.90564924E-12-7.63263672E+03 8.67355251E+00                   4
CHOCHO                  C   2H   2O   20   0G   300.00   5000.00  1000.00      1
 0.80213250E+01 0.75729310E-02-0.31166720E-05 0.58645500E-09-0.41132260E-13    2
-0.28750050E+05-0.16247820E+02 0.33600290E+01 0.12559770E-01 0.10569420E-04    3
-0.24503780E-07 0.11037460E-10-0.27087360E+05 0.97151500E+01                   4
CHOCO                   C   2H   1O   20   0G   300.00   5000.00  1000.00      1
 0.83591970E+01 0.44947090E-02-0.19879570E-05 0.38903890E-09-0.27935380E-13    2
-0.12406730E+05-0.16767200E+02 0.76697390E+01-0.12908030E-01 0.59528090E-04    3
-0.69600430E-07 0.26537680E-10-0.11337010E+05-0.86714600E+01                   4
C2H4O2H                 C   2H   5O   20   0G   300.00   5000.00  1000.00      1
 0.91353040E+01 0.11853070E-01-0.36418600E-05 0.61121730E-09-0.40462160E-13    2
-0.15248430E+02-0.17537470E+02 0.69312110E+00 0.44846830E-01-0.56695650E-04    3
 0.41299960E-07-0.12226990E-10 0.18797770E+04 0.23795920E+02                   4
C2H3O                   C   2H   3O   10   0G   300.00   5000.00  1000.00      1
 0.62295550E+01 0.82943900E-02-0.30010100E-05 0.53019390E-09-0.35889510E-13    2
 0.49284210E+04-0.74315770E+01 0.22223530E+01 0.18691160E-01-0.11548170E-04    3
 0.18288890E-08 0.82301300E-12 0.60898410E+04 0.13478390E+02                   4
CHOCHO                  C   2H   2O   20   0G   300.00   5000.00  1000.00      1
 0.80213250E+01 0.75729310E-02-0.31166720E-05 0.58645500E-09-0.41132260E-13    2
-0.28750050E+05-0.16247820E+02 0.33600290E+01 0.12559770E-01 0.10569420E-04    3
-0.24503780E-07 0.11037460E-10-0.27087360E+05 0.97151500E+01                   4
CH3CO             120186C   2H   3O   1     G  0300.00   5000.00  1000.00      1
 5.61227894E+00 8.44988599E-03-2.85414717E-06 4.23837632E-10-2.26840370E-14    2
-5.18786328E+03-3.27494907E+00 3.12527847E+00 9.77822021E-03 4.52144832E-06    3
-9.00946162E-09 3.19371786E-12-4.10850781E+03 1.12288542E+01                   4
C2H2              121386C   2H   2          G  0300.00   5000.00  1000.00      1
 4.43677044E+00 5.37603907E-03-1.91281674E-06 3.28637895E-10-2.15670953E-14    2
 2.56676641E+04-2.80033827E+00 2.01356220E+00 1.51904458E-02-1.61631888E-05    3
 9.07899178E-09-1.91274600E-12 2.61244434E+04 8.80537796E+00                   4
C2H3               12787C   2H   3          G  0300.00   5000.00  1000.00      1
 5.93346787E+00 4.01774561E-03-3.96673954E-07-1.44126655E-10 2.37864351E-14    2
 3.18543457E+04-8.53031254E+00 2.45927644E+00 7.37147639E-03 2.10987287E-06    3
-1.32164213E-09-1.18478383E-12 3.33522500E+04 1.15562019E+01                   4
C2H4              121286C   2H   4          G  0300.00   5000.00  1000.00      1
 3.52841878E+00 1.14851845E-02-4.41838529E-06 7.84460053E-10-5.26684849E-14    2
 4.42828857E+03 2.23038912E+00-8.61487985E-01 2.79616285E-02-3.38867721E-05    3
 2.78515220E-08-9.73787891E-12 5.57304590E+03 2.42114868E+01                   4
C2H5               12387C   2H   5          G  0300.00   5000.00  1000.00      1
 7.19048023E+00 6.48407731E-03-6.42806469E-07-2.34787939E-10 3.88087728E-14    2
 1.06745488E+04-1.47808924E+01 2.69070172E+00 8.71913321E-03 4.41983866E-06    3
 9.33870314E-10-3.92777347E-12 1.28704043E+04 1.21381950E+01                   4
C2H6              121686C   2H   6          G  0300.00   5000.00  1000.00      1
 4.82593823E+00 1.38404286E-02-4.55725876E-06 6.72496725E-10-3.59816140E-14    2
-1.27177930E+04-5.23950672E+00 1.46253872E+00 1.54946670E-02 5.78050731E-06    3
-1.25783188E-08 4.58626713E-12-1.12391758E+04 1.44322949E+01                   4
C2H                20387C   2H   1          G  0300.00   5000.00  1000.00      1
 4.42768812E+00 2.21626856E-03-6.04895263E-07 9.88251703E-11-7.35117957E-15    2
 6.59041484E+04-1.19944179E+00 3.05066776E+00 6.05167449E-03-4.95663426E-06    3
 2.80415913E-09-8.19333208E-13 6.63001094E+04 5.95436096E+00                   4
C3H2              121686C   3H   2          G  0300.00   5000.00  1000.00      1
 6.53085327E+00 5.87031618E-03-1.72077671E-06 2.12749790E-10-8.29191045E-15    2
 5.11521367E+04-1.12272778E+01 2.69107723E+00 1.48036638E-02-3.25055135E-06    3
-8.64436345E-09 5.28487757E-12 5.21907188E+04 8.75739098E+00                   4
C3H3               82489C   3H   3          G  0300.00   5000.00  1000.00      1
 0.08831047E+02 0.04357194E-01-0.04109066E-05-0.02368723E-08 0.04376520E-12    2
 0.03847419E+06-0.02177919E+03 0.04754199E+02 0.11080277E-01 0.02793323E-05    3
-0.05479212E-07 0.01949629E-10 0.03988883E+06 0.05854549E+01                   4
C3H6              120186C   3H   6          G  0300.00  5000.00  1000.00       1
 0.06732257E+02 0.14908336E-01-0.04949899E-04 0.07212022E-08-0.03766204E-12    2
-0.09235703E+04-0.13313348E+02 0.14933071E+01 0.02092517E+00 0.04486794E-04    3
-0.16689121E-07 0.07158146E-10 0.10748264E+04 0.16145340E+02                   4
NC3H7             121686C   3H   7          G  0300.00  5000.00  1000.00       1
 0.79782906E+01 0.15761133E-01-0.51732432E-05 0.74438922E-09-0.38249782E-13    2
 0.75794023E+04-0.19356110E+02 0.19225368E+01 0.24789274E-01 0.18102492E-05    3
-0.17832658E-07 0.85829963E-11 0.97132812E+04 0.13992715E+02                   4
IC3H7             121686C   3H   7          G  0300.00  5000.00  1000.00       1
 0.80633688E+01 0.15744876E-01-0.51823918E-05 0.74772455E-09-0.38544221E-13    2
 0.53138711E+04-0.21926468E+02 0.17132998E+01 0.25426164E-01 0.15808082E-05    3
-0.18212862E-07 0.88277103E-11 0.75358086E+04 0.12979008E+02                   4
C3H8              120186C   3H   8          G  0300.00   5000.00  1000.00      1
 7.52521706E+00 1.88903399E-02-6.28392445E-06 9.17937282E-10-4.81240990E-14    2
-1.64645469E+04-1.78439026E+01 8.96920800E-01 2.66898610E-02 5.43142505E-06    3
-2.12600071E-08 9.24333006E-12-1.39549180E+04 1.93553314E+01                   4
SC3H5             121686C   3H   5          G  0300.00  4000.00  1000.00       1
 0.09209764E+02 0.07871412E-01-0.07724522E-05-0.04497357E-08 0.08377272E-12    2
 0.02853967E+06-0.02232369E+03 0.03161863E+02 0.15180997E-01 0.02722659E-04    3
-0.05177112E-07 0.05435286E-12 0.03095547E+06 0.11979133E+02                   4
AC3H4              40687C   3H   4          G  0300.00   5000.00  1000.00      1
 5.72914410E+00 1.23680448E-02-4.80562676E-06 8.60136407E-10-5.81280223E-14    2
 2.01298418E+04-9.44866753E+00-2.13196874E-01 3.35871354E-02-3.80487036E-05    3
 2.74583787E-08-8.69004434E-12 2.16204844E+04 2.02939262E+01                   4
C3H4C             121686C   3H   4          G  0300.00   5000.00  1000.00      1
 6.69999313E+00 1.03573725E-02-3.45511671E-06 5.06529485E-10-2.66822765E-14    2
 3.01990508E+04-1.33919334E+01-2.46210471E-02 2.31972151E-02-1.84743567E-06    3
-1.59275935E-08 8.68461553E-12 3.23341367E+04 2.27165985E+01                   4
PC3H4             121686C   3H   4          G  0300.00   5000.00  1000.00      1
 0.05511034E+02 0.12469562E-01-0.04814164E-04 0.08573770E-08-0.05771561E-12    2
 0.01961967E+06-0.10794748E+02 0.06271447E+01 0.03116179E+00-0.03747663E-03    3
 0.02964117E-06-0.09987381E-10 0.02083492E+06 0.13468796E+02                   4
TC3H5             121686C   3H   5          G  0300.00  5000.00  1000.00       1
 0.09101018E+02 0.07964167E-01-0.07884945E-05-0.04562036E-08 0.08529212E-12    2
 0.02670680E+06-0.02150559E+03 0.03385811E+02 0.14045337E-01 0.03204127E-04    3
-0.03824120E-07-0.09053742E-11 0.02909066E+06 0.11266487E+02                   4
SC3H5             121686C   3H   5          G  0300.00  4000.00  1000.00       1
 0.09209764E+02 0.07871412E-01-0.07724522E-05-0.04497357E-08 0.08377272E-12    2
 0.02853967E+06-0.02232369E+03 0.03161863E+02 0.15180997E-01 0.02722659E-04    3
-0.05177112E-07 0.05435286E-12 0.03095547E+06 0.11979133E+02                   4
AC3H5             121686C   3H   5          G  0300.00  4000.00  1000.00       1
 0.09651539E+02 0.08075596E-01-0.07965424E-05-0.04650696E-08 0.08603281E-12    2
 0.15300955E+05-0.02686773E+03 0.02276486E+02 0.01985564E+00 0.11238421E-05    3
-0.10145757E-07 0.03441342E-10 0.01789496E+06 0.13725151E+02                   4
UC4H8             120386C   4H   8          G  0300.00   5000.00  1000.00      1
 2.05358410E+00 3.43505070E-02-1.58831972E-05 3.30896621E-09-2.53610447E-13    2
-2.13972315E+03 1.55432015E+01 1.18113804E+00 3.08533795E-02 5.08652465E-06    3
-2.46548879E-08 1.11101926E-11-1.79040039E+03 2.10624695E+01                   4
T2C4H8            120386C   4H   8          G  0300.00   5000.00  1000.00      1
 0.82797676E+00 0.35864539E-01-0.16634498E-04 0.34732759E-08-0.26657398E-12    2
-0.30521033E+04 0.21342545E+02 0.12594252E+01 0.27808424E-01 0.87013932E-05    3
-0.24402205E-07 0.98977710E-11-0.29647742E+04 0.20501129E+02                   4
C2C4H8            120386C   4H   8          G  0300.00   5000.00  1000.00      1
 0.11097383E+01 0.35542578E-01-0.16481703E-04 0.34412202E-08-0.26411468E-12    2
-0.26507607E+04 0.19353516E+02 0.24108791E+01 0.25147773E-01 0.98473047E-05    3
-0.22716758E-07 0.86585895E-11-0.27758694E+04 0.14084535E+02                   4
C4H4              121686C   4H   4          G  0300.00   5000.00  1000.00      1
 8.89214897E+00 1.09088495E-02-3.59495971E-06 5.19341903E-10-2.68089214E-14    2
 3.32843477E+04-2.17269440E+01 2.14033699E+00 2.46050470E-02-3.63916570E-06    3
-1.53040141E-08 8.89646083E-12 3.53740000E+04 1.42824774E+01                   4
C4H6              120186C   4H   6          G  0300.00   5000.00  1000.00      1
 8.04658318E+00 1.64852515E-02-5.52222718E-06 8.12359291E-10-4.29507843E-14    2
 1.37013047E+04-1.80045776E+01 3.19710827E+00 2.02559158E-02 6.51019218E-06    3
-1.65844227E-08 6.40028221E-12 1.57152031E+04 9.89566040E+00                   4
C4H2              121686C   4H   2          G  0300.00   5000.00  1000.00      1
 9.03140736E+00 6.04725257E-03-1.94878885E-06 2.75486300E-10-1.38560801E-14    2
 5.29473555E+04-2.38506775E+01 4.00519180E+00 1.98100023E-02-9.86587747E-06    3
-6.63515820E-09 6.07741288E-12 5.42406484E+04 1.84573650E+00                   4
IC4H3             121686C   4H   3          G  0300.00   5000.00  1000.00      1
 0.11314095E+02 0.05014414E-01-0.05350444E-05-0.02825309E-08 0.05403279E-12    2
 0.05181211E+06-0.03062434E+03 0.06545799E+02 0.12424768E-01 0.05603226E-05    3
-0.05631141E-07 0.16652183E-11 0.05352502E+06-0.04264082E+02                   4
NC4H3             121686C   4H   3          G  0300.00   5000.00  1000.00      1
 0.10752738E+02 0.05381153E-01-0.05549637E-05-0.03052266E-08 0.05761740E-12    2
 0.06121419E+06-0.02973025E+03 0.04153881E+02 0.01726287E+00-0.02389374E-05    3
-0.10187000E-07 0.04340504E-10 0.06338070E+06 0.06036506E+02                   4
NC4H5             120186C   4H   5          G  0300.00   5000.00  1000.00      1
 0.12865971E+02 0.07943369E-01-0.08626466E-05-0.04655635E-08 0.08951131E-12    2
 0.03783552E+06-0.04182502E+03 0.02995240E+02 0.02288456E+00 0.01975471E-04    3
-0.11482454E-07 0.03197823E-10 0.04142218E+06 0.12894539E+02                   4
IC4H5             120186C   4H   5          G  0300.00   5000.00  1000.00      1
 0.11997762E+02 0.07990580E-01-0.08098172E-05-0.04568733E-08 0.08636911E-12    2
 0.03228493E+06-0.03528494E+03 0.03879443E+02 0.01997663E+00 0.01872777E-04    3
-0.09306953E-07 0.02386116E-10 0.03526859E+06 0.09842152E+02                   4
C4H7_3            8/8/95C   4H   7          G    300.00  5000.00 1390.00       1
 1.05530058E+01 1.67167927E-02-5.69791452E-06 8.76783965E-10-5.04280060E-14    2
 1.12677056E+04-3.32658245E+01-1.04407861E+00 4.38254346E-02-3.03098825E-05    3
 1.12454433E-08-1.75878458E-12 1.53284538E+04 2.90705780E+01                   4
C4H               121686C   4H   1          G  0300.00   5000.00  1000.00      1
 6.24288178E+00 6.19368255E-03-2.08593156E-06 3.08220338E-10-1.63648256E-14    2
 7.56801875E+04-7.21080589E+00 5.02324677E+00 7.09237531E-03-6.07376194E-09    3
-2.27575225E-09 8.08699407E-13 7.62381250E+04-6.94259405E-02                   4
PC4H9             H 5/86C   4H   9    0    0G   500.000  3500.000 1000.00    0 1
 0.12382930E+02 0.13840028E-01 0.80844439E-06-0.22457742E-08 0.39922567E-12    2
 0.14846635E+04-0.41392137E+02-0.17071871E+00 0.36734968E-01 0.11200436E-05    3
-0.24176654E-07 0.11677215E-10 0.57140983E+04 0.26765455E+02                   4
SC4H9             H 5/86C   4H   9    0    0G   500.000  3500.000 1000.00    0 1
 0.12382930E+02 0.13840028E-01 0.80844439E-06-0.22457742E-08 0.39922567E-12    2
 0.14846635E+04-0.41392137E+02-0.17071871E+00 0.36734968E-01 0.11200436E-05    3
-0.24176654E-07 0.11677215E-10 0.57140983E+04 0.26765455E+02                   4
NC4H10            H 5/86C   4H  10    0    0G   500.000  3500.000 1000.00    0 1
 0.14602211E+02 0.11379562E-01 0.36868251E-05-0.33131941E-08 0.53239170E-12    2
-0.22851794E+05-0.53810264E+02-0.86151217E+00 0.40699753E-01 0.64189936E-06    3
-0.26731561E-07 0.13139217E-10-0.17699965E+05 0.29866040E+02                   4
IC4H10            H 5/86C   4H  10    0    0G   500.000  3500.000 1000.00    0 1
 4.38221170E+01-1.73379260E-02 8.52503732E-06-1.58270998E-09 9.05769978E-14    2
-3.64596687E+04-2.22975259E+02-6.67252001E+01 3.55188855E-01-4.69781724E-04    3
 2.68804507E-07-5.60189701E-11-8.60350596E+03 3.31631704E+02                   4
H2C4O             121686C   4H   2O   1     G  0300.00   4000.00  1000.00      1
 0.10268878E+02 0.04896164E-01-0.04885080E-05-0.02708566E-08 0.05107013E-12    2
 0.02346902E+06-0.02815985E+03 0.04810971E+02 0.13139988E-01 0.09865073E-05    3
-0.06120720E-07 0.16400028E-11 0.02545803E+06 0.02113424E+02                   4
NC5H12            H 5/86C   5H  12    0    0G   500.000  3500.000 1000.00    0 1
 0.28416714E+02-0.65237375E-02 0.19027721E-04-0.88335207E-08 0.12333092E-11    2
-0.31405356E+05-0.12800541E+03-0.58271137E+01 0.63638002E-01-0.37850756E-05    3
-0.43813916E-07 0.23108592E-10-0.20268090E+05 0.55978544E+02                   4
IC5H12            H 5/86C   5H  12    0    0G   300.000  5000.000 1390.00    0 1
 1.57973145E+01 2.62613369E-02-9.00865195E-06 1.40120752E-09-8.13944079E-14    2
-2.72746817E+04-5.82824396E+01-1.34131759E+00 6.31399950E-02-3.89549917E-05    3
 1.24066911E-08-1.64037258E-12-2.09234825E+04 3.50219209E+01                   4
C6H6               20387C   6H   6          G  0300.00   5000.00  1000.00      1
 1.29107399E+01 1.72329657E-02-5.02421062E-06 5.89349680E-10-1.94752119E-14    2
 3.66451172E+03-5.00269928E+01-3.13801193E+00 4.72310297E-02-2.96220787E-06    3
-3.26281899E-08 1.71869186E-11 8.89003125E+03 3.65757294E+01                   4
C6H5              H 5/86C   6H   5          G   500.000  3500.000 1000.00      1
 0.18678198E+02-0.33724339E-03 0.85640791E-05-0.41692022E-08 0.58501189E-12    2
 0.27815103E+05-0.74873327E+02 0.25593819E+01 0.32488934E-01-0.15610554E-05    3
-0.21279774E-07 0.11113356E-10 0.33067849E+05 0.11779337E+02                   4
TC4H9      6/18/97 THERMC   4H  9           G   300.000  5000.000 1588.000    91
 1.60671256E+01 1.48757083E-02-5.34808463E-06 8.58447268E-10-5.09757043E-14    2
 6.34495996E+01-6.11332646E+01 5.74677019E-01 3.96955872E-02-1.31718566E-05    3
-3.37086590E-09 1.95311779E-12 6.49040367E+03 2.59598247E+01                   4
IC4H9             H 5/86C   4H   9    0    0G   300.000  5000.000 1409.00    0 1
 5.42050307E+01-4.30612797E-02 2.45994430E-05-5.41703780E-09 3.91631593E-13    2
-1.72018621E+04-2.74882876E+02-4.98346902E+01 2.69191092E-01-3.31450641E-04    3
 1.74280128E-07-3.30294756E-11 1.14819624E+04 2.58315066E+02                   4
IC4H8      6/18/97 THERMC   4H  8           G   300.000  5000.000 1448.000    91
 1.56087510E+01 1.26518509E-02-4.56610437E-06 7.34802888E-10-4.37111515E-14    2
-9.71117109E+03-6.05067596E+01 1.93800548E+00 3.19584433E-02-5.39883121E-06    3
-7.60251946E-09 2.86179374E-12-3.84932829E+03 1.71493068E+01                   4
IC4H7      6/18/97 THERMC   4H  7           G   300.000  5000.000 1392.000    11
 1.21764059E+01 1.42324489E-02-4.95687254E-06 8.11026458E-10-4.94184056E-14    2
 1.09990219E+04-3.89902666E+01-9.09116532E-01 4.68492733E-02-3.66968075E-05    3
 1.50959585E-08-2.53854743E-12 1.53439172E+04 3.05704351E+01                   4
C5H11_1    4/21/97 THERMC   5H  11    0    0G   300.000  5000.000 1392.000     1
 1.51416197E+01 2.39476153E-02-8.05098414E-06 1.23554859E-09-7.11077484E-14    2
-8.37035946E+02-5.38326218E+01-1.75664861E-01 5.71400164E-02-3.47139130E-05    3
 1.06387742E-08-1.29239954E-12 4.74913783E+03 2.93617028E+01                   4
NC5H11     4/21/97 THERMC   5H  11    0    0G   300.000  5000.000 1392.000     1
 1.51416197E+01 2.39476153E-02-8.05098414E-06 1.23554859E-09-7.11077484E-14    2
-8.37035946E+02-5.38326218E+01-1.75664861E-01 5.71400164E-02-3.47139130E-05    3
 1.06387742E-08-1.29239954E-12 4.74913783E+03 2.93617028E+01                   4
IC5H11     4/21/97 THERMC   5H  11    0    0G   300.000  5000.000 1392.000     1
 1.51416197E+01 2.39476153E-02-8.05098414E-06 1.23554859E-09-7.11077484E-14    2
-8.37035946E+02-5.38326218E+01-1.75664861E-01 5.71400164E-02-3.47139130E-05    3
 1.06387742E-08-1.29239954E-12 4.74913783E+03 2.93617028E+01                   4
C5H11_2    4/21/97 THERMC   5H  11    0    0G   300.000  5000.000 1392.000     1
 1.51416197E+01 2.39476153E-02-8.05098414E-06 1.23554859E-09-7.11077484E-14    2
-8.37035946E+02-5.38326218E+01-1.75664861E-01 5.71400164E-02-3.47139130E-05    3
 1.06387742E-08-1.29239954E-12 4.74913783E+03 2.93617028E+01                   4
C5H11_3    4/21/97 THERMC   5H  11    0    0G   300.000  5000.000 1392.000     1
 1.51416197E+01 2.39476153E-02-8.05098414E-06 1.23554859E-09-7.11077484E-14    2
-8.37035946E+02-5.38326218E+01-1.75664861E-01 5.71400164E-02-3.47139130E-05    3
 1.06387742E-08-1.29239954E-12 4.74913783E+03 2.93617028E+01                   4
NC5H12            H 5/86C   5H  12    0    0G   500.000  3500.000 1000.00    0 1
 0.28416714E+02-0.65237375E-02 0.19027721E-04-0.88335207E-08 0.12333092E-11    2
-0.31405356E+05-0.12800541E+03-0.58271137E+01 0.63638002E-01-0.37850756E-05    3
-0.43813916E-07 0.23108592E-10-0.20268090E+05 0.55978544E+02                   4
!ch2.-ch2-ch(ch3)2
IC5H11_4          H 5/86C   5H  11    0    0G   300.000  5000.000 1390.00    0 1
 1.53818750E+01 2.41141042E-02-8.27847584E-06 1.28831856E-09-7.48649188E-14    2
-2.21034931E+03-5.36019870E+01-5.92409395E-01 5.86734947E-02-3.65981110E-05    3
 1.18412541E-08-1.59845819E-12 3.69231921E+03 3.33003260E+01                   4
!ch3-ch.-ch(ch3)2
IC5H11_3          H 5/86C   5H  11    0    0G   300.000  5000.000 1390.00    0 1
 1.48080437E+01 2.41642684E-02-8.11501262E-06 1.24473884E-09-7.16198734E-14    2
-3.32567362E+03-4.93608712E+01-2.63048126E-01 5.42765949E-02-2.87569957E-05    3
 6.46230353E-09-3.16341064E-13 2.39662854E+03 3.33521563E+01                   4
!ch3-ch2-c.(CH3)2
IC5H11_2          H 5/86C   5H  11    0    0G   300.000  5000.000 1390.00    0 1
 1.39073137E+01 2.54249890E-02-8.74289372E-06 1.36202712E-09-7.92041157E-14    2
-4.05125857E+03-4.39709633E+01 2.42901065E+00 4.24407315E-02-1.30562253E-05    3
-1.97621133E-09 1.29529180E-12 1.01587957E+03 2.13188896E+01                   4
!ch3-ch2-ch(Ch3, ch2.)
IC5H11_1          H 5/86C   5H  11    0    0G   300.000  5000.000 1390.00    0 1
 1.48080437E+01 2.41642684E-02-8.11501262E-06 1.24473884E-09-7.16198734E-14    2
-3.32567362E+03-4.93608712E+01-2.63048126E-01 5.42765949E-02-2.87569957E-05    3
 6.46230353E-09-3.16341064E-13 2.39662854E+03 3.33521563E+01                   4