!
! ************************************************************************
! ************************************************************************
! ******************* For further documentation of mechanism:  ***********
! ******************* see references below and their citations ***********
! ************************************************************************
! ************************************************************************
!
! Nitrogen subset
!
! P. Glarborg, J.A. Miller, B. Ruscic, S.J. Klippenstein,
! "Modeling Nitrogen Chemistry in Combustion",
! Prog. Energy Combust. Sci. 67 (2018) 31-68.
!
! J. Jian, H. Hashemi, H. Wu, P. Glarborg, A.W. Jasper, S.J. Klippenstein
! "An experimental, theoretical, and kinetic modeling study of post-flame oxidation of ammonia",
! Combust. Flame (2024)
!
! Previous updates compared to the review marked by # and properly referenced
!
! Present updates compared to the review marked by ## 
!
 ELEMENTS
O  H  C  N HE AR ! KR
 END
!
 SPECIES
NH3 H2 NO2 NO N2O
tHNNO cHNNO NHNO H2NNO2 tHNN(O)OH cHNN(O)OH
!
O2 O3 H O OH HO2 H2O H2O2
!
CO CO2 HOCO CH2O HCO
!
NO NH3
NH2 NH N NNH N2H4 N2H3 tHNNH cHNNH H2NN
NH2OH H2NO HNOH HNO HON HONO HNO2 NO3 HONO2
H2NCO HNCO NCO
!
AR HE N2 ! KR
!
END
!
!
 REACTIONS
!
! *****************************************************************************
!    N2O subset (HNNO from Meng et al., 2023)                                 *
! *****************************************************************************
!
N2O(+M)=N2+O(+M)                     9.9E10   0.000   57901 ! 
 LOW/                                6.0E14   0.000   57444 /
 N2/1.7/ O2/1.4/ H2O/12/ N2O/6/ ! KR /0.79/ ! 
! Baulch DL Bowman CT Cobos CJ Cox RA Just Th Kerr JA Pilling MJ Stocker D Troe J Tsang W Walker RW Warnatz J JPCRD 34:757-1397 2005
! Fc=1.167-1.25E-4T close to 1.0 over 300-2500 K range
! Johnsson JE Glarborg P Dam-Johansen K PCI 24:917 1992 (TBE)
!
N2O+H=N2+OH                          2.2E14   0.000   16752 ! ##
!N2O+H=N2+OH                          2.5E10    0.000    4551 ! 
! Marshall, P.; Ko, T.; Fontijn, A. J. Phys. Chem. 1989, 93, 1922-1927.
! pw: low activation energy coefficients removed (replaced by addition channel to HNNO)
!
N2O+H(+M)=tHNNO(+M)                  1.70E4   3.05     6530 ! ##
 LOW  /                              1.3E27  -3.48     7030/!
H2/3.0/ H2O/21/ O2/1.1/ N2/1.5/                             !
TROE  / 0.12 1.0E-30 1.0E30 /                               !
! Meng, Lei, Lee, Burke, Proc Combust Inst 39 (2023) 551-560.
!
N2O+H(+M)=cHNNO(+M)                  2.4E-2   4.81     4790 ! ##
 LOW  /                              1.2E25  -2.94     6770/!
H2/3.0/ H2O/21/ O2/1.1/ N2/1.5/                             !
TROE  / 0.12 1.0E-30 1.0E30 /                               !
! Meng, Lei, Lee, Burke, Proc Combust Inst 39 (2023) 551-560.
!
N2O+H(+M)=NHNO(+M)                  5.9E-17   9.29    11900 ! ##
 LOW  /                              4.8E20  -1.93    14400/!
H2/3.0/ H2O/21/ O2/1.1/ N2/1.5/                             !
TROE  /  0.075 1.0E-30 1.0E30  /                            !
! Meng, Lei, Lee, Burke, Proc Combust Inst 39 (2023) 551-560.
!
N2O+O=NO+NO                          2.0E10   1.000   24800 ! ##
! Gonzalez, Sayos, Valero, Chem Phys Lett 355 (2002) 123-132.
! Glarborg, Allingham, Skov, Hashemi, Marshall, J Phys Chem A 127 (2023) 6521-6531. 
!
N2O+O=N2+O2                          2.6E12   0.500   41100 ! ##
! Gonzalez, Sayos, Valero, Chem Phys Lett 355 (2002) 123-132.
! Glarborg, Allingham, Skov, Hashemi, Marshall, J Phys Chem A 127 (2023) 6521-6531. 
!
N2O+OH=N2+HO2                        1.3E-2   4.720   36560 !
! Mebel, Diau, Lin, Morokuma, J Phys Chem 100 (1996) 7517-7525.
!
N2O+OH=HNO+NO                        1.2E-4   4.330   25080 !
! Mebel, Diau, Lin, Morokuma, J Phys Chem 100 (1996) 7517-7525.
!
N2O+NO=NO2+N2                        5.3E05   2.230   46280 !
! Mebel, Diau, Lin, Morokuma, J Phys Chem 100 (1996) 7517-7525.
!
tHNNO(+M)=cHNNO(+M)                  1.3E04   3.36    23000 ! ##
 LOW  /                              1.0E17  -0.801   16900/!
H2/3.0/ H2O/21/ O2/1.1/ N2/1.5/                             !
TROE  /  0.074 1.0E-30 1.0E30  /                            !
! Meng, Lei, Lee, Burke, Proc Combust Inst 39 (2023) 551-560.
!
tHNNO=N2+OH                          1.9E14  -2.27    28300 ! 1 atm  ##
 PLOG /  0.001                       5.5E20  -4.92    27957 / 
 PLOG /  0.01                        7.2E19  -4.47    28290 / 
 PLOG /  0.1                         1.4E17  -3.44    28122 / 
 PLOG /  1                           1.9E14  -2.27    28300 / 
 PLOG /  10                          1.2E14  -1.76    30057 / 
 PLOG /  100                         6.5E16  -2.06    33255 / 
 PLOG /  1000                        1.2E18  -2.00    35804 / 
! Meng, Lei, Lee, Burke, Proc Combust Inst 39 (2023) 551-560.
!
tHNNO=NHNO                          3.8E-15   3.686   16506 ! 800-3000 K ##
 PLOG /  1.0                         7.0E-1   0.403   30406/
 PLOG /  10.0                        7.6E00   0.907   33467/
 PLOG /  100.0                       7.6E00   0.907   33467/
 PLOG /  1000.0                      7.8E03   1.009   38212/
! Meng, Lei, Lee, Burke, Proc Combust Inst 39 (2023) 551-560.
!
tHNNO+H=NH2+NO                       1.8E13   0.183     -45 ! ##
tHNNO+H=N2+H+OH   	             1.2E14  -0.077     126 ! ##
tHNNO+H=N2+H2O    	             7.9E13  -0.139     270 ! ##
tHNNO+H=N2O+H2     	             6.7E06   1.878     143 ! ##
! pw (Glarborg, Fabricius-Bjerre, Joensen, Hashemi, Klippenstein, 2024)
!
tHNNO+O=N2O+OH    		     6.0E13   0.0         0 ! est ##
tHNNO+O=HNO+NO    		     6.0E13   0.0         0 ! est ##
! Meng, Lei, Lee, Burke, Proc Combust Inst 39 (2023) 551-560.
!
tHNNO+OH=H2NNO2                      2.3E23  -5.11     3594 ! 1 atm ## 
 PLOG /  0.001                       3.0E24  -6.22    12272 / 
 PLOG /  0.01                        1.5E22  -5.30    10109 / 
 PLOG /  0.1                         1.4E21  -4.77     6968 / 
 PLOG /  1                           2.3E23  -5.11     3594 / 
 PLOG /  10                          8.2E28  -6.26     3437 / 
 PLOG /  100                         8.5E31  -6.68     5301 / 
 PLOG /  1000                        6.8E29  -5.71     7282 / 
! Meng, Lei, Lee, Burke, Proc Combust Inst 39 (2023) 551-560.
!
tHNNO+OH=tHNN(O)OH                   3.0E19  -4.15     2539 ! 1 atm ## 
 PLOG /  0.001                       1.4E21  -5.39    12576 / 
 PLOG /  0.01                        1.3E20  -4.83    11019 / 
 PLOG /  0.1                         1.0E17  -3.74     5875 / 
 PLOG /  1                           3.0E19  -4.15     2539 / 
 PLOG /  10                          7.8E24  -5.25     2310 / 
 PLOG /  100                         1.3E28  -5.63     3641 / 
 PLOG /  1000                        2.6E27  -4.97     5060 / 
! Meng, Lei, Lee, Burke, Proc Combust Inst 39 (2023) 551-560.
!
tHNNO+OH=cHNN(O)OH                   4.9E10  -1.69     2195 ! 1 atm ## 
 PLOG /  0.001                      3.7E-56  15.10   -44419 / 
 PLOG /  0.01                        1.1E23  -5.50    34725 / 
 PLOG /  0.1                         6.9E15  -3.34    17962 / 
 PLOG /  1                           4.9E10  -1.69     2195 / 
 PLOG /  10                          9.5E21  -4.41     1742 / 
 PLOG /  100                         7.2E27  -5.53     3389 / 
 PLOG /  1000                        4.6E27  -5.01     4132 / 
! Meng, Lei, Lee, Burke, Proc Combust Inst 39 (2023) 551-560.
!
tHNNO+OH=NH2+NO2                     2.3E16  -1.44     1239 ! 1 atm ## 
 PLOG /  0.001                       2.2E16  -1.44     1234 / 
 PLOG /  0.01                        2.2E16  -1.44     1234 /
 PLOG /  0.1                         2.2E16  -1.44     1234 /
 PLOG /  1                           2.3E16  -1.44     1239 / 
 PLOG /  10                          3.5E16  -1.50     1408 / 
 PLOG /  100                         1.4E18  -1.92     3172 / 
 PLOG /  1000                        8.2E18  -2.06     6656 / 
! Meng, Lei, Lee, Burke, Proc Combust Inst 39 (2023) 551-560.
!
tHNNO+OH=H2O+N2O                     9.1E13  -0.55      337 ! 1 atm ## 
 PLOG /  0.001                       9.2E13  -0.55      338 / 
 PLOG /  0.01                        9.2E13  -0.55      338 / 
 PLOG /  0.1                         9.2E13  -0.55      338 / 
 PLOG /  1                           9.1E13  -0.55      337 / 
 PLOG /  10                          9.3E13  -0.55      338 / 
 PLOG /  100                         2.2E14  -0.65      720 / 
 PLOG /  1000                        2.2E14  -0.62     1739 / 
! Meng, Lei, Lee, Burke, Proc Combust Inst 39 (2023) 551-560.
!
tHNNO+OH=HNOH+NO    		     3.0E13   0.0         0 ! ## 
! Meng, Lei, Lee, Burke, Proc Combust Inst 39 (2023) 551-560 est.
!
tHNNO+O2=HO2+N2O                     3.7E-2   4.341   11952 ! ##
tHNNO+O2=NO+HNO2                     2.9E03   2.444   31043 ! ##
tHNNO+O2=cHNNO+O2                    1.0E04   2.090   37213 ! ##
! Meng, Lei, Lee, Burke, Proc Combust Inst 39 (2023) 551-560.
!
cHNNO=N2+OH                          1.0E03   1.00    17830 ! 1 atm ## 
 PLOG /  0.001                       2.7E07  -0.96    17410 / 
 PLOG /  0.01                        1.3E07  -0.71    17789 / 
 PLOG /  0.1                         2.7E05  -0.01    17748 / 
 PLOG /  1                           1.0E03   1.00    17830 / 
 PLOG /  10                          4.7E02   1.52    19263 / 
 PLOG /  100                         9.6E04   1.32    21935 / 
 PLOG /  1000                        8.8E05   1.43    23724 / 
! Meng, Lei, Lee, Burke, Proc Combust Inst 39 (2023) 551-560.
!
cHNNO=NHNO                           3.9E-6   1.913   23095 ! 1 atm ##
 PLOG /  1.0                         3.9E-6   1.913   23095/
 PLOG /  10.0                        1.0E-3   1.987   26556/
 PLOG /  100.0                       1.0E-3   1.987   26556/
! Meng, Lei, Lee, Burke, Proc Combust Inst 39 (2023) 551-560 (800-3000 K).
!
cHNNO+H=NH2+NO    	             5.8E10   0.313    -182 ! ## 
cHNNO+H=H+N2+OH    	             1.0E14  -0.157     180 ! ## 
cHNNO+H=N2+H2O                       9.1E13  -0.088      75 ! ## 
cHNNO+H=N2O+H2                       3.0E13   0.0954     60 ! ## 
! pw (Glarborg, Fabricius-Bjerre, Joensen, Hashemi, Klippenstein, 2024)
!
cHNNO+O=HNO+NO    		     6.0E13   0.0         0 !
cHNNO+O=N2O+OH    		     6.0E13   0.0         0 !
! Meng, Lei, Lee, Burke, Proc Combust Inst 39 (2023) 551-560.
!
cHNNO+OH=H2NNO2                      1.1E15  -2.98     8984 ! 1 atm ##
 PLOG /  0.001                       6.6E07  -1.75    12568 / 
 PLOG /  0.01                        9.3E12  -2.89    16148 / 
 PLOG /  0.1                         1.7E18  -4.09    18328 / 
 PLOG /  1                           1.1E15  -2.98     8984 / 
 PLOG /  10                          6.6E19  -4.01     3295 / 
 PLOG /  100                         1.3E28  -5.85     3491 / 
 PLOG /  1000                        5.6E29  -5.79     5235 / 
! Meng, Lei, Lee, Burke, Proc Combust Inst 39 (2023) 551-560.
!
cHNNO+OH=tHNN(O)OH                   9.6E09  -1.69     7400 ! 1 atm ## 
 PLOG /  0.001                       1.5E30  -7.88    36355 / 
 PLOG /  0.01                        1.6E31  -7.86    37492 / 
 PLOG /  0.1                         2.0E17  -3.91    20340 / 
 PLOG /  1                           9.6E09  -1.69     7400 / 
 PLOG /  10                          4.1E15  -2.94     2092 / 
 PLOG /  100                         1.7E24  -4.8      2307 / 
 PLOG /  1000                        1.2E27  -5.0      3790 / 
! Meng, Lei, Lee, Burke, Proc Combust Inst 39 (2023) 551-560.
!
cHNNO+OH=cHNN(O)OH                   1.4E06  -0.76     8238 ! 1 atm ## 
 PLOG /  1                           1.4E06  -0.76     8238 / 
 PLOG /  10                          4.3E13  -2.42     1857 / 
 PLOG /  100                         2.8E24  -4.87     2369 / 
 PLOG /  1000                        6.3E27  -5.23     4346 / 
! Meng, Lei, Lee, Burke, Proc Combust Inst 39 (2023) 551-560.
!
cHNNO+OH=NH2+NO2                     1.5E14  -0.65      626 ! 1 atm ## 
 PLOG /  0.001                       1.5E14  -0.65      626 / 
 PLOG /  0.01                        1.5E14  -0.65      626 / 
 PLOG /  0.1                         1.5E14  -0.65      626 / 
 PLOG /  1                           1.5E14  -0.65      626 / 
 PLOG /  10                          1.5E14  -0.65      626 / 
 PLOG /  100                         2.3E14  -0.70      784 / 
 PLOG /  1000                        2.9E15  -0.98     2546 / 
! Meng, Lei, Lee, Burke, Proc Combust Inst 39 (2023) 551-560.
!
cHNNO+OH=tHNNO+OH                    8.3E12  -0.30     1162   ! 1 atm ## 
 PLOG /  0.001                       8.2E12  -0.30     1159 / 
 PLOG /  0.01                        8.2E12  -0.30     1159 / 
 PLOG /  0.1                         8.2E12  -0.30     1159 / 
 PLOG /  1                           1.5E14  -0.65      626 / 
 PLOG /  10                          8.7E12  -0.31     1190 / 
 PLOG /  100                         1.7E13  -0.38     1502 / 
 PLOG /  1000                        1.8E14  -0.65     3175 / 
! Meng, Lei, Lee, Burke, Proc Combust Inst 39 (2023) 551-560.
!
cHNNO+OH=N2O+H2O                     6.0E14  -0.91      668 ! 1 atm  ##
 PLOG /  0.001                       6.0E14  -0.91      668 / 
 PLOG /  0.01                        6.0E14  -0.91      668 / 
 PLOG /  0.1                         6.0E14  -0.91      668 / 
 PLOG /  1                           6.0E14  -0.91      668 / 
 PLOG /  10                          6.0E14  -0.91      666 / 
 PLOG /  100                         7.5E14  -0.94      711 / 
 PLOG /  1000                        6.8E15  -1.18     2089 / 
! Meng, Lei, Lee, Burke, Proc Combust Inst 39 (2023) 551-560.
!
cHNNO+OH=HNOH+NO    		     3.0E13   0.0         0 ! ## 
! Meng, Lei, Lee, Burke, Proc Combust Inst 39 (2023) 551-560 (est).
!
cHNNO+O2=N2O+HO2                     9.9E00   3.498   14772 ! ##
cHNNO+O2=NO+HNO2                     5.8E04   2.189   31166 ! ##
! Meng, Lei, Lee, Burke, Proc Combust Inst 39 (2023) 551-560.
! 
NHNO=N2+OH                           6.6E05   0.36    13590 ! 1 atm ## 
 PLOG /  0.001                       2.6E05  -0.51    10529 / 
 PLOG /  0.01                        1.2E06  -0.40    11592 / 
 PLOG /  0.1                         1.0E06  -0.06    12507 / 
 PLOG /  1                           6.6E05   0.36    13590 / 
 PLOG /  10                          2.6E07   0.33    15729 / 
 PLOG /  100                         3.7E11  -0.41    19036 / 
 PLOG /  1000                        4.3E14  -0.89    21729 / 
! Meng, Lei, Lee, Burke, Proc Combust Inst 39 (2023) 551-560.
!
NHNO+H=NH2+NO    		     6.0E13   0.0         0 ! ## 
NHNO+H=H+N2+OH   		     6.0E13   0.0         0 ! ## 
NHNO+H=N2+H2O    		     6.0E13   0.0         0 ! ## 
! Meng, Lei, Lee, Burke, Proc Combust Inst 39 (2023) 551-560 est.
!
NHNO+O=HNO+NO    	             6.0E13   0.0         0 ! ##
NHNO+O=N2O+OH    		     6.0E13   0.0         0 ! ##
! Meng, Lei, Lee, Burke, Proc Combust Inst 39 (2023) 551-560 est.
!
NHNO+OH=HNOH+NO    		     3.0E13   0.0         0 ! ## 
NHNO+OH=H2O+N2O    		     3.0E13   0.0         0 ! ## 
! Meng, Lei, Lee, Burke, Proc Combust Inst 39 (2023) 551-560 est.
!
NHNO+O2=N2O+HO2                      3.0E13   0.0         0 ! ## 
NHNO+O2=HNO+NO2                      3.0E13   0.0         0 ! ## 
! Meng, Lei, Lee, Burke, Proc Combust Inst 39 (2023) 551-560 est.
!
! *****************************************************************************
!    H2/O2 subset                                                             *
! *****************************************************************************
!
H+O2=O+OH                            1.0E14   0.000   15286 !
! Hong et al., Proc. Comb. Inst. 33:309-316 (2011)
!
O+H2=OH+H                            3.8E12   0.000    7948 !
 DUPLICATE                                                  !
O+H2=OH+H                            8.8E14   0.000   19175 !
 DUPLICATE                                                  !
! Baulch DL Bowman CT Cobos CJ Cox RA Just Th Kerr JA Pilling MJ Stocker D Troe J Tsang W Walker RW Warnatz J JPCRD 34:757-1397 2005
!
OH+H2=H+H2O                          2.2E08   1.510    3430 !
! Michael and Sutherland, J. Phys. Chem. 92:3853 (1988)
!
!OH+OH=O+H2O                          1.4E07   1.689   -1167 !
! DUPLICATE
!OH+OH=O+H2O                         -2.7E10   0.567       0 !
! DUPLICATE
! M. Sangwan, L. N. Krasnoperov, J Phys Chem A 116 (2012) 11817-11822.
OH+OH=O+H2O                          2.0E07   1.651     631 !
 DUPLICATE
OH+OH=O+H2O                          2.6E11  -0.057    -827 !
 DUPLICATE
! HH: Refitted (400-3000 K) for better stability of the solvers (avoiding negative 'A') 16-04-08
!
H2+M=H+H+M                           4.6E19  -1.400  104380 !
 H2/2.5/ H2O/12/ NH3/5/ AR/0/ O2/0/
H2+AR=H+H+AR                         5.8E18  -1.100  104380 !
! Tsang and Hampson, J. Phys. Chem. Ref. Data, 15:1087 (1986)
!
H+O+M=OH+M                           4.7E18  -1.000       0 !
 H2/2.5/  H2O/12/ AR/0.75/ CO/1.9/  CO2/3.8/  NH3/5/  O2/0/
! Tsang and Hampson, J. Phys. Chem. Ref. Data, 15:1087 (1986)
!
O+O+M=O2+M                           1.9E13   0.000   -1788 !
 H2/2.5/ H2O/12/ AR/0/ CO/1.9/ CO2/3.8/  NH3/5/
! Tsang W Hampson RF JPCRD 15:1087 1986
!
H2O+M = H+OH+M                       6.1E27  -3.322  120790 !
 H2/3/ H2O/0/ N2/2/ O2/0/ CO/1.9/ CO2/3.8/  NH3/5/
! Srinivasan and Michael, Int. J. Chem. Kinetic. 38 (2006)
! Rate constant is for Ar with efficiencies from Michael et al., J. Phys. Chem. A, 106 (2002)
! Efficiencies for CO and CO2 taken from Li et al., Int. J. Chem. Kinet. 36:566-575 (2004)
H2O+H2O = H+OH+H2O                   1.0E26  -2.440  120180 !
! Srinivasan and Michael, Int. J. Chem. Kinetic. 38 (2006)
!                       
H+O2(+M) = HO2(+M)                   1.2E12   0.580    -214 ! #
 LOW                                /4.6E20  -1.670     871/!
 TROE/0.5852 1.0E+30 1.0E-10/
 AR/1/ H2O/22.6/ N2/1.53/
 H2/3/ O2/1/ CO/3/ CO2/11/ NH3/19/
! Lei, L. & Burke, M. P., Combust. Flame 213, 467-474 (2020).
!
HO2+H=H2+O2                          2.8E06   2.090   -1451 !
! Michael et al., Proc. Comb. Inst. 28:1471 (2000)
! Scaled by 0.75 Burke et al. (2012)
!
HO2+H=OH+OH                          7.1E13   0.000     295 !
! Mueller et al., Int. J. Chem. Kinetic. 31:113 (1999)
!
HO2+H=H2O+O                          1.4E12   0.000       0 !
! Baulch DL Bowman CT Cobos CJ Cox RA Just Th Kerr JA Pilling MJ Stocker D Troe J Tsang W Walker RW Warnatz J JPCRD 34:757-1397 2005
!
HO2+O=O2+OH                          2.9E10   1.000    -724 !
! Fernandez-Ramos and Varandas, J. Phys. Chem. A 106:4077-4083 (2002)
! Scaled by 0.60 by Burke et al. 2012
!
HO2+OH = H2O+O2                      1.9E20  -2.490     584 !
 DUPLICATE
HO2+OH = H2O+O2                      1.2E09   1.240   -1310 !
 DUPLICATE
! M. P. Burke, S. J. Klippenstein, L. B. Harding, Proc Combust Inst 34 (2013) 547-555.
!
HO2+HO2=H2O2+O2                      1.9E-2   4.120  -4960 ! #
! S.J. Klippenstein, R. Sivaramakrishnan, U. Burke, K. P. Somers, H. J. Curran, L. Cai, H. Pitsch, M. Pelucchi, T. Faravelli, P. Glarborg,
! "HO2 + HO2: High Level Theory and the Role of Singlet Channels", Combust. Flame 243 (2022) 111975.
!
HO2+HO2=O2+OH+OH                     6.4E17  -1.540   8540 ! #
! S.J. Klippenstein, R. Sivaramakrishnan, U. Burke, K.P. Somers, H.J. Curran, L. Cai, H. Pitsch, M. Pelucchi, T. Faravelli, P. Glarborg,
! "HO2 + HO2: High Level Theory and the Role of Singlet Channels", Combust. Flame 243 (2022) 111975.
!
H2O2(+M) = OH+OH(+M)                 2.0E12   0.900   48749 !
 LOW/                                2.5E24  -2.300   48749/
 TROE/0.43 1E-30 1E30/
 AR/1/ H2O/5.5/ CO2/5.2/ N2/1.5/ O2/1.2/ H2O2/7.7/ H2/3.7/ CO/2.8/ NH3/8/
! Troe, Combust. Flame 158:594-601 (2011)
! Efficiencies for H2 and CO taken from Li et al., Int. J. Chem. Kinet. 36:566-575 (2004)
!
H2O2+H=H2O+OH                        2.4E13   0.000    3970 !
! Tsang and Hampson, J. Phys. Chem. Ref. Data, 15:1087 (1986)
!
H2O2+H=HO2+H2                        4.8E13   0.000    7950 !
! Tsang and Hampson, J. Phys. Chem. Ref. Data, 15:1087 (1986)
!
H2O2+O=HO2+OH                        9.6E06   2.000    3970 !
! Tsang W Hampson RF JPCRD 15:1087 1986
!
H2O2+OH=HO2+H2O                      1.7E12   0.000     318 !
   DUPLICATE
H2O2+OH=HO2+H2O                      7.6E13   0.000    7270 !
   DUPLICATE
! Hong et al., J. Phys. Chem. A  114 (2010) 5718-5727
!
H+O2+H=H2+O2                         8.8E22  -1.835     800 ! #
H+O2+H=OH+OH                         4.0E22  -1.835     800 ! #
H+O2+O=OH+O2                         7.4E22  -1.835     800 ! #
H+O2+OH=H2O+O2                       2.6E22  -1.835     800 ! #
! M. P. Burke and S. J. Klippenstein. Ephemeral collision complexes mediate chemically termolecular transformations
! that affect system chemistry. Nat. Chem., 9:1078-1082, 2017
!
! *****************************************************************************
!    CO/CO2 subset                                                            *
! *****************************************************************************
!
CO+O(+M)=CO2(+M)                     1.8E10   0.000    2384 !
 LOW  /                              1.4E24  -2.790    4191/                                  !
 TROE /1.0 1E-30 1E30 1E30/                                 !
 H2/2.5/ H2O/12/ CO/1.9/ CO2/3.8/ NH3/5/                           !
! Mueller MA Yetter RA Dryer FL IJCK 31:705 1999
!
CO+OH=CO2+H                          8.7E05   1.730    -685 ! 1 atm
 PLOG/  0.01315                      2.1E05   1.900   -1064/
 PLOG/  0.1315                       2.5E05   1.880   -1043/
 PLOG/  1.315                        8.7E05   1.730    -685/
 PLOG/ 13.158                        6.8E06   1.480      48/
 PLOG/ 131.58                        2.3E07   1.350     974/
! J.P. Senosiain, S.J. Klippenstein, J.A. Miller, Proc. Combust. Inst. 30 (2005) 945-953.
!
CO+OH=HOCO                           2.0E20  -3.500    1309 !  1.0 atm interpolation - LPL (JPS,SJK,&JAM 30th Symp)
 PLOG/ 0.013158                      1.7E15  -2.680     859/
 PLOG/ 0.13158                       5.9E18  -3.350     887/
 PLOG/ 1.3158                        2.6E20  -3.500    1309/
 PLOG/ 13.158                        7.1E20  -3.320    1763/
 PLOG/ 131.58                        1.1E20  -2.780    2056/
! J.P. Senosiain, S.J. Klippenstein, J.A. Miller, Proc. Combust. Inst. 30 (2005) 945-953.
!
CO+HO2=CO2+OH                        1.6E05   2.180   17943 !
! You X Wang H Goos E Sung C-J Klippenstein SJ JCPA 111:4031-4042 2007
!
CO+O2=CO2+O                          4.7E12   0.000   60500 !
! Bacskay GB Mackie JC JPCA 109:2019-2025 2005
!
CO+H2O2=HOCO+OH                      3.6E04   2.500   28660 !
! P Glarborg P Marshall CPL 475 (2009) 40-43
!
HOCO(+M)=CO2+H(+M)                   8.2E11   0.413   35335 !
 LOW  /                              6.0E26  -3.148   37116 /                               !
 TROE / 0.39 1.0E-30 1.0E30 /                               ! Fc = 0.39
 H2/2.5/ H2O/12/ CO/1.9/ CO2/3.8/ NH3/5/                           !
! DM Golden GP Smith AB McEwen C-L Yu B Eiteneer M Frenklach GL Vaghjiani AR Ravishankara FP Tully J Phys Chem. A 102 (1998) 8598-8606.
!
HOCO+H=CO2+H2                        3.1E17  -1.3475    555 !
! H.G. Yu, J.S. Francisco, J. Chem. Phys. 128 (2008) 244315.
! P. Marshall, P. Glarborg, Proc. Combust. Inst. 35 (2015) 153-160 (300-1000 K, fit).
!
HOCO+H=CO+H2O                        6.0E15  -0.525    2125 !
! H.G. Yu, J.S. Francisco, J. Chem. Phys. 128 (2008) 244315.
! P. Marshall, P. Glarborg, Proc. Combust. Inst. 35 (2015) 153-160 (300-1000 K, fit).
!
HOCO+O=CO2+OH                        9.0E12   0.000       0 !
! H.G. Yu, J.T. Muckerman, J.S. Francisco, J. Chem. Phys. 127 (2007) 094302.
!
HOCO+OH=CO2+H2O                      4.6E12   0.000     -89 !
 DUPLICATE                                                  !
HOCO+OH=CO2+H2O                      9.5E06   2.000     -89 !
 DUPLICATE                                                  !
! Yu H-G Muckerman JT Francisco JS JPCA 109:5230-5236 2005
!
HOCO+HO2=CO2+H2O2                    4.0E13   0.000       0 !
! H.G. Yu, G. Poggi, J.S. Francisco, J.T. Muckerman, J. Chem. Phys. 129 (2008) 214307.
!
HOCO+O2=CO2+HO2                      4.0E09   1.000       0 !
! H.G. Yu, J.T. Muckerman, J. Phys. Chem. A 110 (2006) 5312-5316.
! P. Marshall, P. Glarborg, Proc. Combust. Inst. 35 (2015) 153-160 (300-1000 K, fit).
!
! *****************************************************************************
!    CH2O subset                                                              *
! *****************************************************************************
!
CH2O(+M)=HCO+H(+M)                   8.0E15   0.000   87726 !
 LOW /                               1.3E36  -5.500   93932/
 H2/2.5/ H2O/12/ CO/1.9/ CO2/3.8/ NH3/5/                           !
! Troe J JPCA 109:8320-8328 2005
! J. Troe, J. Phys. Chem. A 111 (2007) 3862-3867.
!
CH2O(+M)=CO+H2(+M)                   3.7E13   0.000   71969 !
 LOW /                               4.4E38  -6.100   93932/
 H2/2.5/ H2O/12/ CO/1.9/ CO2/3.8/ NH3/5/                           !
! Troe J JPCA 109:8320-8328 2005
! J. Troe, J. Phys. Chem. A 111 (2007) 3862-3867.
!
!CH2O+H=HCO+H2                        5.9E03   3.130    1510 !
! Wang SK Dames EE Davidson DF Hanson RK, J. Phys. Chem. A  118 10201-10209 2014
! applying prompt HCO dissociation - Labbe et al., J. Phys. Chem. Lett. 2016:
CH2O+H=HCO+H2                        1.4E23  -2.355   17519 ! 1 atm
 PLOG/0.04                           7.4E23  -2.732   16379/
 PLOG/0.04                           2.1E10   1.057    3720/ !
 PLOG/1                              1.4E23  -2.355   17519/
 PLOG/1                              1.6E15  -0.444    5682/ !
 PLOG/10                             7.3E23  -2.665   17634/
 PLOG/10                             4.2E09   1.294    3591/ !
CH2O+H=H+CO+H2                       5.1E07   2.182   11524
 PLOG/0.04                           7.2E08   1.903   11733/
 PLOG/1                              5.1E07   2.182   11524/
 PLOG/10                         1.1E09   1.812   13163/
!
!CH2O+O=HCO+OH                        4.2E11   0.570    2760 !
! Baulch DL Bowman CT Cobos CJ Cox RA Just Th Kerr JA Pilling MJ Stocker D Troe J Tsang W Walker RW Warnatz J JPCRD 34:757-1397 2005
! applying prompt HCO dissociation - Labbe et al., J. Phys. Chem. Lett. 2016:
CH2O+O=HCO+OH                        5.6E31  -5.189   19968
 DUPLICATE
CH2O+O=HCO+OH                        1.4E15  -0.530    4011
 DUPLICATE
CH2O+O=H+CO+OH                       2.5E21  -1.903   22674
!
!CH2O+OH=HCO+H2O                      2.4E07   1.830   -1116 !
! S. Wang, D. F. Davidson, R. K. Hanson, Proc. Combust. Inst. 35 473-480 2015
! applying prompt HCO dissociation - Labbe et al., J. Phys. Chem. Lett. 2016:
CH2O+OH=HCO+H2O                      1.9E09    1.256    -302
 PLOG/0.04                           3.6E09    1.167    -206/  !
 PLOG/1                              1.9E09    1.256    -302/  !
 PLOG/10                             1.1E09    1.330    -392/  !
CH2O+OH=H+CO+H2O                     7.2E10    0.892    9310
 PLOG/0.04                           7.0E10    0.911    8646/
 PLOG/1                              7.2E10    0.892    9310/
 PLOG/10                             8.4E10    0.879    9843/
!
!CH2O+HO2=HCO+H2O2                    4.1E04   2.500   10206 !
! Eiteneer B Yu CL Goldenberg M Frenklach M JPCA 102:5196 1998
! applying prompt HCO dissociation - Labbe et al., J. Phys. Chem. Lett. 2016:
!CH2O+HO2=HCO+H2O2                    4.1E04   2.500   10206 !
! DUPLICATE
!CH2O+HO2=HCO+H2O2                   -2.5E14   0.027   30133
! DUPLICATE
CH2O+HO2=HCO+H2O2                    4.4E08   1.298   12129 ! refit
CH2O+HO2=H+CO+H2O2                   2.5E14   0.027   30120
!
!CH2O+O2=HCO+HO2                      2.4E05   2.500   36461 !
! Baulch DL Bowman CT Cobos CJ Cox RA Just Th Kerr JA Pilling MJ Stocker D Troe J Tsang W Walker RW Warnatz J JPCRD 34:757-1397 2005
! applying prompt HCO dissociation - Labbe et al., J. Phys. Chem. Lett. 2016:
!CH2O+O2=HCO+HO2                      2.4E05   2.500   36461
! DUPLICATE
!CH2O+O2=HCO+HO2                     -1.4E15    0.027   56388
! DUPLICATE
CH2O+O2=HCO+HO2                      1.8E16   -0.639   45400 ! refit
 DUPLICATE
CH2O+O2=HCO+HO2                      6.6E08    1.360   37324 ! refit
 DUPLICATE
CH2O+O2=H+CO+HO2                     1.4E15    0.027   56388
!
HCO(+M)=H+CO(+M)                     4.9E16   -0.930   19724 !
 LOW/                                7.4E21   -2.360   19383/
 TROE/ 0.103 139 10900 4550/
 N2/1.5/ HE/1.3/ O2/1.5/ CO/1.5/ H2/2/  CO2/3./ H2O/15./ NH3/8/
! Yang et al., 8th U.S. National Combustion Meeting, 2013, 070RK-0163.
!
HCO+H=CO+H2                          1.1E14   0.000       0 !
! Friedrichs G Herbon JT Davidson DF Hanson RK CPPC 4:5778-5788 2002
!
HCO+O=CO+OH                          3.0E13   0.000       0 !
! Baulch DL Cobos CJ Cox RA Esser C Frank P Just Th Kerr JA Pilling MJ Troe J Walker RW Warnatz J JPCRD 21:403 1992
!
HCO+O=CO2+H                          3.0E13   0.000       0 !
! Baulch DL Cobos CJ Cox RA Esser C Frank P Just Th Kerr JA Pilling MJ Troe J Walker RW Warnatz J JPCRD 21:403 1992
!
HCO+OH=CO+H2O                        1.1E14   0.000       0 !
! Baulch DL Bowman CT Cobos CJ Cox RA Just Th Kerr JA Pilling MJ Stocker D Troe J Tsang W Walker RW Warnatz J JPCRD 34:757-1397 2005
!
HCO+O2=CO+HO2                        6.9E06   1.900   -1369 !
! Fassheber N Friedrichs G Marshall P Glarborg P J. Phys. Chem. A 119 (2015) 7305-7315.
!
HCO+HO2=CO2+OH+H                     3.0E13   0.000       0 !
! Tsang W Hampson RF JPCRD 15:1087 1986
!
HCO+HCO=CO+CH2O                      2.7E13   0.000       0 !
! Friedrichs G Herbon JT Davidson DF Hanson RK CPPC 4:5778-5788 2002
!
!
! ************************************************************************