units(length='cm', time='s', quantity='mol', act_energy='K')

ideal_gas(name='gas',
          elements="O H C N Ar",
          species="""AR    H     H2    O     O2    OH    H2O   HO2   H2O2
                     N2""",
          reactions='all',
          initial_state=state(temperature=300.0, pressure=OneAtm))

#-------------------------------------------------------------------------------
# Species data
#-------------------------------------------------------------------------------

species(name=u'AR',
        atoms='Ar:1',
        thermo=(NASA([200.00, 1000.00],
                     [ 2.50000000E+00,  0.00000000E+00,  0.00000000E+00,
                       0.00000000E+00,  0.00000000E+00, -7.45375000E+02,
                       4.37967490E+00]),
                NASA([1000.00, 6000.00],
                     [ 2.50000000E+00,  0.00000000E+00,  0.00000000E+00,
                       0.00000000E+00,  0.00000000E+00, -7.45375000E+02,
                       4.37967490E+00])))

species(name=u'H',
        atoms='H:1',
        thermo=(NASA([200.00, 1000.00],
                     [ 2.50000000E+00,  0.00000000E+00,  0.00000000E+00,
                       0.00000000E+00,  0.00000000E+00,  2.54736600E+04,
                      -4.46682850E-01]),
                NASA([1000.00, 6000.00],
                     [ 2.50000000E+00,  0.00000000E+00,  0.00000000E+00,
                       0.00000000E+00,  0.00000000E+00,  2.54736600E+04,
                      -4.46682850E-01])))

species(name=u'H2',
        atoms='H:2',
        thermo=(NASA([200.00, 1000.00],
                     [ 2.34430290E+00,  7.98042480E-03, -1.94779170E-05,
                       2.01569670E-08, -7.37602890E-12, -9.17924130E+02,
                       6.83002180E-01]),
                NASA([1000.00, 6000.00],
                     [ 2.93283050E+00,  8.26598020E-04, -1.46400570E-07,
                       1.54098510E-11, -6.88796150E-16, -8.13055820E+02,
                      -1.02431640E+00])))

species(name=u'O',
        atoms='O:1',
        thermo=(NASA([200.00, 1000.00],
                     [ 3.16826710E+00, -3.27931884E-03,  6.64306396E-06,
                      -6.12806624E-09,  2.11265971E-12,  2.91222592E+04,
                       2.05193346E+00]),
                NASA([1000.00, 6000.00],
                     [ 2.54363697E+00, -2.73162486E-05, -4.19029520E-09,
                       4.95481845E-12, -4.79553694E-16,  2.92260120E+04,
                       4.92229457E+00])))

species(name=u'O2',
        atoms='O:2',
        thermo=(NASA([200.00, 1000.00],
                     [ 3.78245636E+00, -2.99673415E-03,  9.84730200E-06,
                      -9.68129508E-09,  3.24372836E-12, -1.06394356E+03,
                       3.65767573E+00]),
                NASA([1000.00, 6000.00],
                     [ 3.66096083E+00,  6.56365523E-04, -1.41149485E-07,
                       2.05797658E-11, -1.29913248E-15, -1.21597725E+03,
                       3.41536184E+00])))

species(name=u'OH',
        atoms='H:1 O:1',
        thermo=(NASA([200.00, 1000.00],
                     [ 3.99198424E+00, -2.40106655E-03,  4.61664033E-06,
                      -3.87916306E-09,  1.36319502E-12,  3.37165248E+03,
                      -1.03814059E-01]),
                NASA([1000.00, 6000.00],
                     [ 2.83853033E+00,  1.10741289E-03, -2.94000209E-07,
                       4.20698729E-11, -2.42289890E-15,  3.70056220E+03,
                       5.84513094E+00])))

species(name=u'H2O',
        atoms='H:2 O:1',
        thermo=(NASA([200.00, 1000.00],
                     [ 4.19863520E+00, -2.03640170E-03,  6.52034160E-06,
                      -5.48792690E-09,  1.77196800E-12, -3.02937260E+04,
                      -8.49009010E-01]),
                NASA([1000.00, 6000.00],
                     [ 2.67703890E+00,  2.97318160E-03, -7.73768890E-07,
                       9.44335140E-11, -4.26899910E-15, -2.98858940E+04,
                       6.88255000E+00])))

species(name=u'HO2',
        atoms='H:1 O:2',
        thermo=(NASA([200.00, 1000.00],
                     [ 4.30178800E+00, -4.74902010E-03,  2.11579530E-05,
                      -2.42759610E-08,  9.29206700E-12,  2.63190983E+02,
                       3.71587740E+00]),
                NASA([1000.00, 6000.00],
                     [ 4.17226590E+00,  1.88120980E-03, -3.46292970E-07,
                       1.94685160E-11,  1.76091530E-16,  3.02010736E+01,
                       2.95697380E+00])))

species(name=u'H2O2',
        atoms='H:2 O:2',
        thermo=(NASA([200.00, 1000.00],
                     [ 4.31515149E+00, -8.47390622E-04,  1.76404323E-05,
                      -2.26762944E-08,  9.08950158E-12, -1.76843601E+04,
                       3.27373216E+00]),
                NASA([1000.00, 6000.00],
                     [ 4.57977305E+00,  4.05326003E-03, -1.29844730E-06,
                       1.98211400E-10, -1.13968792E-14, -1.79847939E+04,
                       6.64969660E-01])))

species(name=u'N2',
        atoms='N:2',
        thermo=(NASA([200.00, 1000.00],
                     [ 3.53100528E+00, -1.23660988E-04, -5.02999433E-07,
                       2.43530612E-09, -1.40881235E-12, -1.04697628E+03,
                       2.96747038E+00]),
                NASA([1000.00, 6000.00],
                     [ 2.95257637E+00,  1.39690040E-03, -4.92631603E-07,
                       7.86010195E-11, -4.60755204E-15, -9.23948688E+02,
                       5.87188762E+00])))

#-------------------------------------------------------------------------------
# Reaction data
#-------------------------------------------------------------------------------
#      1

# Reaction 1
reaction('H + O2 <=> O + OH', [3.550000e+15, -0.41, 8354.3])
#      2

# Reaction 2
three_body_reaction('2 H + M <=> H2 + M', [7.000000e+17, -1.0, 0.0],
                    efficiencies='H2:0.0 N2:0.0 H2O:0.0')
#      3

# Reaction 3
reaction('2 H + N2 <=> H2 + N2', [5.400000e+18, -1.3, 0.0])
#      4

# Reaction 4
reaction('2 H + H2 <=> 2 H2', [1.000000e+17, -0.6, 0.0])
#      5

# Reaction 5
reaction('2 H + H2O <=> H2 + H2O', [1.000000e+19, -1.0, 0.0])
#      6

# Reaction 6
three_body_reaction('H + O + M <=> OH + M', [6.200000e+16, -0.6, 0.0],
                    efficiencies='H2O:5.0')
#      7

# Reaction 7
falloff_reaction('H + O2 (+ M) <=> HO2 (+ M)',
                 kf=[1.480000e+12, 0.6, 0.0],
                 kf0=[3.500000e+16, -0.41, -561.65],
                 efficiencies='H2:2.0 N2:0.0 AR:0.0 H2O:11.0 O2:0.78',
                 falloff=Troe(A=0.5, T3=1e-30, T1=1e+30))
#      8

# Reaction 8
falloff_reaction('H + O2 (+ AR) <=> HO2 (+ AR)',
                 kf=[1.480000e+12, 0.6, 0.0],
                 kf0=[9.040000e+19, -1.5, 246.6],
                 falloff=Troe(A=0.5, T3=1e-30, T1=1e+30))
#      9

# Reaction 9
falloff_reaction('H + O2 (+ N2) <=> HO2 (+ N2)',
                 kf=[1.480000e+12, 0.6, 0.0],
                 kf0=[6.370000e+20, -1.72, 261.7],
                 falloff=Troe(A=0.8, T3=1e-30, T1=1e+30))
#     10

# Reaction 10
three_body_reaction('2 O + M <=> O2 + M', [1.890000e+13, 0.0, -899.85],
                    efficiencies='N2:1.5 O2:1.5 H2O:10.0')
#     11

# Reaction 11
reaction('O + H2 <=> OH + H', [3.818000e+12, 0.0, 4000.0],
         options='duplicate')
#     12

# Reaction 12
reaction('O + H2 <=> OH + H', [8.792000e+14, 0.0, 9650.23],
         options='duplicate')
#     13

# Reaction 13
reaction('2 OH <=> O + H2O', [4.330000e+03, 2.7, -916.96])
#     14

# Reaction 14
three_body_reaction('OH + H + M <=> H2O + M', [4.500000e+22, -2.0, 0.0],
                    efficiencies='H2:0.73 H2O:12.0 AR:0.38')
#     15

# Reaction 15
reaction('OH + H2 <=> H + H2O', [2.140000e+08, 1.52, 1735.78])
#     16

# Reaction 16
reaction('H2 + O2 <=> HO2 + H', [7.395000e+05, 2.433, 26926.02])
#     17

# Reaction 17
reaction('HO2 + H <=> 2 OH', [8.400000e+13, 0.0, 201.31])
#     18

# Reaction 18
reaction('HO2 + H <=> H2O + O', [1.400000e+12, 0.0, 0.0])
#     19

# Reaction 19
reaction('HO2 + O <=> OH + O2', [1.630000e+13, 0.0, -223.96])
#     20

# Reaction 20
reaction('HO2 + OH <=> H2O + O2', [3.600000e+21, -2.1, 4529.44],
         options='duplicate')
#     21

# Reaction 21
reaction('HO2 + OH <=> H2O + O2', [2.000000e+15, -0.6, 0.0],
         options='duplicate')
#     22

# Reaction 22
reaction('HO2 + OH <=> H2O + O2', [-2.200000e+96, -24.0, 24660.29],
         options=['negative_A', 'duplicate'])
#     23

# Reaction 23
reaction('2 HO2 <=> H2O2 + O2', [1.940000e+11, 0.0, -708.61],
         options='duplicate')
#     24

# Reaction 24
reaction('2 HO2 <=> H2O2 + O2', [1.030000e+14, 0.0, 5553.1],
         options='duplicate')
#     25

# Reaction 25
falloff_reaction('H2O2 (+ M) <=> 2 OH (+ M)',
                 kf=[4.000000e+11, 0.0, 18689.99],
                 kf0=[2.291000e+16, 0.0, 21961.75],
                 efficiencies='H2:2.5 H2O:12.0 AR:0.64',
                 falloff=Troe(A=0.5, T3=1e-30, T1=1e+30, T2=1e+30))
#     26

# Reaction 26
reaction('H2O2 + H <=> H2O + OH', [1.020000e+13, 0.0, 1801.71])
#     27

# Reaction 27
reaction('H2O2 + H <=> HO2 + H2', [1.690000e+12, 0.0, 1892.3])
#     28

# Reaction 28
reaction('H2O2 + O <=> HO2 + OH', [9.550000e+06, 2.0, 1997.99])
#     29

# Reaction 29
reaction('H2O2 + OH <=> H2O + HO2', [1.930000e+12, 0.0, 214.9],
         options='duplicate')
#     30

# Reaction 30
reaction('H2O2 + OH <=> H2O + HO2', [1.640000e+18, 0.0, 14801.21],
         options='duplicate')
