units(length='cm', time='s', quantity='mol', act_energy='K')

ideal_gas(name='gas',
          elements="H O N Ar",
          species="""H2    O2    H2O   H2O2  H     O     OH    HO2   N2
                     AR""",
          reactions='all',
          initial_state=state(temperature=300.0, pressure=OneAtm))

#-------------------------------------------------------------------------------
# Species data
#-------------------------------------------------------------------------------

species(name=u'H2',
        atoms='H:2',
        thermo=(NASA([200.00, 1000.00],
                     [ 2.34430290E+00,  7.98042480E-03, -1.94779170E-05,
                       2.01569670E-08, -7.37602890E-12, -9.17924130E+02,
                       6.83002180E-01]),
                NASA([1000.00, 6000.00],
                     [ 2.93283050E+00,  8.26598020E-04, -1.46400570E-07,
                       1.54098510E-11, -6.88796150E-16, -8.13055820E+02,
                      -1.02431640E+00])))

species(name=u'O2',
        atoms='O:2',
        thermo=(NASA([200.00, 1000.00],
                     [ 3.78245636E+00, -2.99673415E-03,  9.84730200E-06,
                      -9.68129508E-09,  3.24372836E-12, -1.06394356E+03,
                       3.65767573E+00]),
                NASA([1000.00, 6000.00],
                     [ 3.66096083E+00,  6.56365523E-04, -1.41149485E-07,
                       2.05797658E-11, -1.29913248E-15, -1.21597725E+03,
                       3.41536184E+00])))

species(name=u'H2O',
        atoms='H:2 O:1',
        thermo=(NASA([200.00, 1000.00],
                     [ 4.19863520E+00, -2.03640170E-03,  6.52034160E-06,
                      -5.48792690E-09,  1.77196800E-12, -3.02937260E+04,
                      -8.49009010E-01]),
                NASA([1000.00, 6000.00],
                     [ 2.67703890E+00,  2.97318160E-03, -7.73768890E-07,
                       9.44335140E-11, -4.26899910E-15, -2.98858940E+04,
                       6.88255000E+00])))

species(name=u'H2O2',
        atoms='H:2 O:2',
        thermo=(NASA([200.00, 1000.00],
                     [ 4.27611269E+00, -5.42822417E-04,  1.67335701E-05,
                      -2.15770813E-08,  8.62454363E-12, -1.77035843E+04,
                       3.43505074E+00]),
                NASA([1000.00, 6000.00],
                     [ 4.57333537E+00,  4.04984070E-03, -1.29479479E-06,
                       1.97281710E-10, -1.13402846E-14, -1.80040975E+04,
                       7.04278488E-01])))

species(name=u'H',
        atoms='H:1',
        thermo=(NASA([200.00, 1000.00],
                     [ 2.50000000E+00,  0.00000000E+00,  0.00000000E+00,
                       0.00000000E+00,  0.00000000E+00,  2.54736600E+04,
                      -4.46682850E-01]),
                NASA([1000.00, 6000.00],
                     [ 2.50000000E+00,  0.00000000E+00,  0.00000000E+00,
                       0.00000000E+00,  0.00000000E+00,  2.54736600E+04,
                      -4.46682850E-01])))

species(name=u'O',
        atoms='O:1',
        thermo=(NASA([200.00, 1000.00],
                     [ 3.16826710E+00, -3.27931884E-03,  6.64306396E-06,
                      -6.12806624E-09,  2.11265971E-12,  2.91222592E+04,
                       2.05193346E+00]),
                NASA([1000.00, 6000.00],
                     [ 2.54363697E+00, -2.73162486E-05, -4.19029520E-09,
                       4.95481845E-12, -4.79553694E-16,  2.92260120E+04,
                       4.92229457E+00])))

species(name=u'OH',
        atoms='H:1 O:1',
        thermo=(NASA([200.00, 1000.00],
                     [ 3.99201543E+00, -2.40131752E-03,  4.61793841E-06,
                      -3.88113333E-09,  1.36411470E-12,  3.35711894E+03,
                      -1.03925458E-01]),
                NASA([1000.00, 6000.00],
                     [ 2.83864607E+00,  1.10725586E-03, -2.93914978E-07,
                       4.20524247E-11, -2.42169092E-15,  3.68599690E+03,
                       5.84452662E+00])))

species(name=u'HO2',
        atoms='H:1 O:2',
        thermo=(NASA([200.00, 1000.00],
                     [ 4.30178800E+00, -4.74902010E-03,  2.11579530E-05,
                      -2.42759610E-08,  9.29206700E-12,  4.46212417E+02,
                       3.71670100E+00]),
                NASA([1000.00, 6000.00],
                     [ 4.17226590E+00,  1.88120980E-03, -3.46292970E-07,
                       1.94685160E-11,  1.76091530E-16,  2.13222508E+02,
                       2.95779740E+00])))

species(name=u'N2',
        atoms='N:2',
        thermo=(NASA([200.00, 1000.00],
                     [ 3.53096280E+00, -1.23659500E-04, -5.02993390E-07,
                       2.43527680E-09, -1.40879540E-12, -1.04696370E+03,
                       2.96743910E+00]),
                NASA([1000.00, 6000.00],
                     [ 2.95254070E+00,  1.39688380E-03, -4.92625770E-07,
                       7.86000910E-11, -4.60749780E-15, -9.23937530E+02,
                       5.87182210E+00])))

species(name=u'AR',
        atoms='Ar:1',
        thermo=(NASA([200.00, 1000.00],
                     [ 2.50000000E+00,  0.00000000E+00,  0.00000000E+00,
                       0.00000000E+00,  0.00000000E+00, -7.45375000E+02,
                       4.37967490E+00]),
                NASA([1000.00, 6000.00],
                     [ 2.50000000E+00,  0.00000000E+00,  0.00000000E+00,
                       0.00000000E+00,  0.00000000E+00, -7.45375000E+02,
                       4.37967490E+00])))

#-------------------------------------------------------------------------------
# Reaction data
#-------------------------------------------------------------------------------
#      1

# Reaction 1
reaction('H2 + O <=> OH + H', [3.819000e+12, 0.0, 4000.0],
         options='duplicate')
#      2

# Reaction 2
reaction('H2 + O <=> OH + H', [8.794000e+14, 0.0, 9650.0],
         options='duplicate')
#      3

# Reaction 3
reaction('H2 + OH <=> H2O + H', [2.168000e+08, 1.52, 1740.0])
#      4

# Reaction 4
falloff_reaction('O2 + H (+ M) <=> HO2 (+ M)',
                 kf=[1.927000e+12, -0.56, 0.0],
                 kf0=[2.648000e+19, -1.3, 0.0],
                 efficiencies='H2:1.49 H2O:0.0 AR:0.0',
                 falloff=Troe(A=1.0, T3=1.0, T1=1.0, T2=506.0),
                 options='duplicate')
#      5

# Reaction 5
falloff_reaction('O2 + H (+ M) <=> HO2 (+ M)',
                 kf=[1.747000e+17, 0.0, 0.0],
                 kf0=[2.648000e+19, -1.3, 0.0],
                 efficiencies='H2:1.49 H2O:0.0 AR:0.0',
                 falloff=Troe(A=1.0, T3=1.0, T1=1.0, T2=506.0),
                 options='duplicate')
#      6

# Reaction 6
falloff_reaction('O2 + H (+ AR) <=> HO2 (+ AR)',
                 kf=[1.927000e+12, -0.56, 0.0],
                 kf0=[6.893000e+18, -1.2, 0.0],
                 falloff=Troe(A=1.0, T3=1.0, T1=1.0, T2=606.0),
                 options='duplicate')
#      7

# Reaction 7
falloff_reaction('O2 + H (+ AR) <=> HO2 (+ AR)',
                 kf=[1.747000e+17, 0.0, 0.0],
                 kf0=[6.893000e+18, -1.2, 0.0],
                 falloff=Troe(A=1.0, T3=1.0, T1=1.0, T2=606.0),
                 options='duplicate')
#      8

# Reaction 8
falloff_reaction('O2 + H (+ H2O) <=> HO2 (+ H2O)',
                 kf=[1.927000e+12, -0.56, 0.0],
                 kf0=[3.628000e+19, -1.0, 0.0],
                 falloff=Troe(A=1.0, T3=1.0, T1=1.0, T2=190.0),
                 options='duplicate')
#      9

# Reaction 9
falloff_reaction('O2 + H (+ H2O) <=> HO2 (+ H2O)',
                 kf=[1.747000e+17, 0.0, 0.0],
                 kf0=[3.628000e+19, -1.0, 0.0],
                 falloff=Troe(A=1.0, T3=1.0, T1=1.0, T2=190.0),
                 options='duplicate')
#     10

# Reaction 10
reaction('O2 + H <=> OH + O', [2.066000e+14, -0.097, 7560.0])
#     11

# Reaction 11
reaction('H2O2 + H <=> HO2 + H2', [1.686000e+12, 0.0, 1890.0])
#     12

# Reaction 12
reaction('H2O2 + H <=> OH + H2O', [1.024000e+13, 0.0, 1800.0])
#     13

# Reaction 13
reaction('H2O2 + O <=> OH + HO2', [8.432000e+11, 0.0, 2000.0])
#     14

# Reaction 14
reaction('H2O2 + OH <=> H2O + HO2', [1.638000e+18, 0.0, 14800.0],
         options='duplicate')
#     15

# Reaction 15
reaction('H2O2 + OH <=> H2O + HO2', [1.927000e+12, 0.0, 215.0],
         options='duplicate')
#     16

# Reaction 16
falloff_reaction('2 OH (+ M) <=> H2O2 (+ M)',
                 kf=[1.566000e+13, 0.0, 0.0],
                 kf0=[2.394000e+19, -0.8, 0.0],
                 efficiencies='H2:2.5 H2O:0.0 AR:0.87',
                 falloff=Troe(A=1.0, T3=1.0, T1=1.0, T2=243.0))
#     17

# Reaction 17
falloff_reaction('2 OH (+ H2O) <=> H2O2 (+ H2O)',
                 kf=[1.566000e+13, 0.0, 0.0],
                 kf0=[1.451000e+18, 0.0, 0.0],
                 falloff=Troe(A=1.0, T3=1.0, T1=1.0, T2=243.0))
#     18

# Reaction 18
three_body_reaction('2 H + M <=> H2 + M', [7.473000e+17, -1.0, 0.0],
                    efficiencies='H2:0.0 H2O:16.25 AR:0.87')
#     19

# Reaction 19
reaction('2 H + H2 <=> 2 H2', [1.016000e+17, -0.6, 0.0])
#     20

# Reaction 20
three_body_reaction('H + O + M <=> OH + M', [7.727000e+18, -1.0, 0.0],
                    efficiencies='H2:2.5 H2O:16.25 AR:0.87')
#     21

# Reaction 21
three_body_reaction('H + OH + M <=> H2O + M', [2.213000e+22, -2.0, 0.0],
                    efficiencies='H2:2.5 H2O:6.4 AR:0.37')
#     22

# Reaction 22
reaction('H + HO2 <=> H2 + O2', [1.054000e+14, 0.0, 1030.0])
#     23

# Reaction 23
reaction('H + HO2 <=> 2 OH', [4.457000e+14, 0.0, 700.0])
#     24

# Reaction 24
reaction('H + HO2 <=> H2O + O', [1.446000e+12, 0.0, 0.0])
#     25

# Reaction 25
three_body_reaction('2 O + M <=> O2 + M', [1.894000e+13, 0.0, -900.0],
                    efficiencies='H2:2.5 H2O:16.25 AR:0.87')
#     26

# Reaction 26
reaction('O + HO2 <=> O2 + OH', [1.626000e+13, 0.0, -224.0])
#     27

# Reaction 27
reaction('2 OH <=> O + H2O', [3.349000e+04, 2.42, -970.0])
#     28

# Reaction 28
reaction('OH + HO2 <=> H2O + O2', [9.275000e+15, 0.0, 8810.0],
         options='duplicate')
#     29

# Reaction 29
reaction('OH + HO2 <=> H2O + O2', [2.891000e+13, 0.0, -250.0],
         options='duplicate')
#     30

# Reaction 30
reaction('2 HO2 <=> H2O2 + O2', [4.216000e+14, 0.0, 6030.0],
         options='duplicate')
#     31

# Reaction 31
reaction('2 HO2 <=> H2O2 + O2', [1.325000e+11, 0.0, -820.0],
         options='duplicate')
#     32

# Reaction 32
reaction('H2 + O2 <=> 2 OH', [6.023000e+11, 0.0, 19627.58])
