THERMO ALL
 300.000  1000.000  5000.000
H                 ATcT3EH   1    0    0    0G    200.00   6000.00 1000.00      1
 2.49985211E+00 2.34582548E-07-1.16171641E-10 2.25708298E-14-1.52992005E-18    2
 2.54738024E+04-4.45864645E-01 2.49975925E+00 6.73824499E-07 1.11807261E-09    3
-3.70192126E-12 2.14233822E-15 2.54737665E+04-4.45574009E-01 2.62191345E+04    4

H2                ATcT3EH   2    0    0    0G    200.00   6000.00 1000.00      1
 2.90207649E+00 8.68992581E-04-1.65864430E-07 1.90851899E-11-9.31121789E-16    2
-7.97948726E+02-8.45591320E-01 2.37694204E+00 7.73916922E-03-1.88735073E-05    3
 1.95517114E-08-7.17095663E-12-9.21173081E+02 5.47184736E-01 0.00000000E+00    4

O                 ATcT3EO   1    0    0    0G    200.00   6000.00 1000.00      1
 2.55160087E+00-3.83085457E-05 8.43197478E-10 4.01267136E-12-4.17476574E-16    2
 2.92287628E+04 4.87617014E+00 3.15906526E+00-3.21509999E-03 6.49255543E-06    3
-5.98755115E-09 2.06876117E-12 2.91298453E+04 2.09078344E+00 2.99753606E+04    4

O2                ATcT3EO   2    0    0    0G    200.00   6000.00 1000.00      1
 3.65980488E+00 6.59877372E-04-1.44158172E-07 2.14656037E-11-1.36503784E-15    2
-1.21603048E+03 3.42074148E+00 3.78498258E+00-3.02002233E-03 9.92029171E-06    3
-9.77840434E-09 3.28877702E-12-1.06413589E+03 3.64780709E+00 0.00000000E+00    4

OH                ATcT3EH   1O   1    0    0G    200.00   6000.00 1000.00      1
 2.84581721E+00 1.09723818E-03-2.89121101E-07 4.09099910E-11-2.31382258E-15    2
 3.71706610E+03 5.80339915E+00 3.97585165E+00-2.28555291E-03 4.33442882E-06    3
-3.59926640E-09 1.26706930E-12 3.39341137E+03-3.55397262E-02 4.50901087E+03    4

! [_ AbsorptionCoefficients=" 2 300 2500 -1.40598E+00  5.14030E+03 -2.49209E+06  5.87875E+09 -2.33462E+12  3.28929E+14  0.00000E+00 " _]
H2O               ATcT3EH   2O   1    0    0G    200.00   6000.00 1000.00      1
 2.73117512E+00 2.95136995E-03-8.35359785E-07 1.26088593E-10-8.40531676E-15    2
-2.99169082E+04 6.55183000E+00 4.20147551E+00-2.05583546E-03 6.56547207E-06    3
-5.52906960E-09 1.78282605E-12-3.02950066E+04-8.60610906E-01-2.90858262E+04    4

N2                ATcT3EN   2    0    0    0G    200.00   6000.00 1000.00      1
 2.93802970E+00 1.41838030E-03-5.03281045E-07 8.07555464E-11-4.76064275E-15    2
-9.17180990E+02 5.95521985E+00 3.53603521E+00-1.58270944E-04-4.26984251E-07    3
 2.37542590E-09-1.39708206E-12-1.04749645E+03 2.94603724E+00 0.00000000E+00    4

HO2               ATcT3EH   1O   2    0    0G    200.00   6000.00 1000.00      1
 4.10564010E+00 2.04046836E-03-3.65877562E-07 1.85973044E-11 4.98818315E-16    2
 4.32898769E+01 3.30808126E+00 4.26251250E+00-4.45642032E-03 2.05164934E-05    3
-2.35794011E-08 9.05614257E-12 2.62442356E+02 3.88223684E+00 1.47417835E+03    4

H2O2              ATcT3EH   2O   2    0    0G    200.00   6000.00 1000.00      1
 4.54017480E+00 4.15970971E-03-1.30876777E-06 2.00823615E-10-1.15509243E-14    2
-1.79514029E+04 8.55881745E-01 4.23854160E+00-2.49610911E-04 1.59857901E-05    3
-2.06919945E-08 8.29766320E-12-1.76486003E+04 3.58850097E+00-1.62917334E+04    4

AR                ATcT3EAR  1    0    0    0G    200.00   6000.00 1000.00      1
 2.49989176E+00 1.56134837E-07-7.76108557E-11 1.52928085E-14-1.05304493E-18    2
-7.45328403E+02 4.38029835E+00 2.49988611E+00 2.13037960E-07 8.97320772E-10    3
-2.31395752E-12 1.30201393E-15-7.45354481E+02 4.38024367E+00 0.00000000E+00    4

! [_ AbsorptionCoefficients=" 1 300 865   3.32332E+01 -3.81859E-01  1.68054E-03 -3.59221E-06  4.10932E-09 -2.44251E-12  5.96159E-16 " _]
! [_ AbsorptionCoefficients=" 1 865 2500  1.14597E+00  2.32393E-02 -5.17447E-05  4.65068E-08 -2.13393E-11  4.97086E-15 -4.67667E-19 " _]
CO                ATcT3EC   1O   1    0    0G    200.00   6000.00 1000.00      1
 3.03397274E+00 1.37328118E-03-4.96445087E-07 8.10281447E-11-4.85331749E-15    2
-1.42586044E+04 6.10076092E+00 3.59508377E+00-7.21196937E-04 1.28238234E-06    3
 6.52429293E-10-8.21714806E-13-1.43448968E+04 3.44355598E+00-1.32928623E+04    4

! [_ AbsorptionCoefficients=" 1 300 860  -1.61017E+02  2.07661E+00 -1.00536E-02  2.58277E-05 -3.59098E-08  2.54860E-11 -7.25425E-15 " _]
! [_ AbsorptionCoefficients=" 1 860 2500 -8.16334E+00  2.72779E-01 -5.37382E-04  4.56021E-07 -2.01261E-10  4.54957E-14 -4.17609E-18 " _]
CO2               ATcT3EC   1O   2    0    0G    200.00   6000.00 1000.00      1
 4.63537470E+00 2.74559459E-03-9.98282389E-07 1.61013606E-10-9.22018642E-15    2
-4.90203677E+04-1.92887630E+00 2.20664321E+00 1.00970086E-02-9.96338809E-06    3
 5.47155623E-09-1.27733965E-12-4.83529864E+04 1.05261943E+01-4.73241678E+04    4

HE                ATcT3EHE  1    0    0    0G    200.00   6000.00 1000.00      1
 2.49985609E+00 2.19365392E-07-1.07525085E-10 2.07198041E-14-1.39358612E-18    2
-7.45309155E+02 9.29535014E-01 2.49976293E+00 1.01013432E-06-8.24578465E-10    3
-6.85983306E-13 7.24751856E-16-7.45340917E+02 9.29800315E-01 0.00000000E+00    4

HCO               ATcT3EC   1H   1O   1    0G    200.00   6000.00 1000.00      1
 3.85781113E+00 2.64113950E-03-7.44177294E-07 1.23313230E-10-8.88958718E-15    2
 3.61642883E+03 3.92451197E+00 3.97074749E+00-1.49121608E-03 9.54041776E-06    3
-8.82720349E-09 2.67645129E-12 3.84203291E+03 4.44660361E+00 5.02774557E+03    4

OHEX              ATcT3EH   1O   1    0    0G    200.00   6000.00 1000.00      1
 2.75582920E+00 1.39848756E-03-4.19428493E-07 6.33453282E-11-3.56042218E-15    2
 5.09751756E+04 5.62581429E+00 3.46084428E+00 5.01872172E-04-2.00254474E-06    3
 3.18901984E-09-1.35451838E-12 5.07349466E+04 1.73976415E+00 5.17770741E+04    4

N                 ATcT3EN   1    0    0    0G    200.00   6000.00 1000.00      1
 2.41604245E+00 1.74663766E-04-1.18864562E-07 3.01850054E-11-2.03260159E-15    2
 5.61051512E+04 4.64905706E+00 2.49976643E+00 5.02149594E-07 1.93091211E-09    3
-4.94632629E-12 2.74089506E-15 5.60760710E+04 4.19499326E+00 5.68214750E+04    4

! [_ AbsorptionCoefficients=" 1 300 785   3.09778E+01 -3.76125E-01  1.78622E-03 -4.19616E-06  5.31065E-09 -3.49672E-12  9.44469E-16 " _]
! [_ AbsorptionCoefficients=" 1 785 2500  3.32933E+00  4.96445E-03 -1.94120E-05  2.00931E-08 -9.88762E-12  2.40521E-15 -2.33153E-19 " _]
NO                ATcT3EN   1O   1    0    0G    200.00   6000.00 1000.00      1
 3.25487317E+00 1.19869941E-03-4.33028500E-07 7.02943336E-11-4.09788575E-15    2
 9.90699836E+03 6.40395140E+00 4.08517990E+00-3.64693188E-03 8.49607612E-06    3
-6.62405734E-09 1.77647373E-12 9.84061267E+03 2.83578236E+00 1.09593379E+04    4

NO2               ATcT3EN   1O   2    0    0G    200.00   6000.00 1000.00      1
 4.90482285E+00 2.14474498E-03-8.12654059E-07 1.55511957E-10-1.04113963E-14    2
 2.28958979E+03-2.33567018E-01 3.78712696E+00-4.29576834E-04 1.37383818E-05    3
-1.74264140E-08 6.71249644E-12 2.89500124E+03 6.96592162E+00 4.09515367E+03    4

! [_ AbsorptionCoefficients=" 1 300 820   9.47313E+01 -1.05713E+00  4.90429E-03 -1.04877E-05  1.16578E-08 -6.67397E-12  1.57665E-15 " _]
! [_ AbsorptionCoefficients=" 1 820 2500  2.72619E+01  1.26580E-01 -3.75408E-04  3.78748E-07 -1.86324E-10  4.55295E-14 -4.43653E-18 " _]
N2O               ATcT3EN   2O   1    0    0G    200.00   6000.00 1000.00      1
 4.80641382E+00 2.65307443E-03-9.70797397E-07 1.62590150E-10-9.96738154E-15    2
 8.19798219E+03-2.10607801E+00 2.13942290E+00 1.21800874E-02-1.59189415E-05    3
 1.20920039E-08-3.85125915E-12 8.87008622E+03 1.12477534E+01 9.93076870E+03    4

! [_ AbsorptionCoefficients=" 2 300  1100  1.15691E+01 -3.56117E+04  3.33438E+07 -7.08740E+09  2.26363E+11  6.26830E+13  0.00000E+00 " _]
! [_ AbsorptionCoefficients=" 2 1100 2500 -5.10770E-02 -8.61034E+02  9.23915E+06 -2.94040E+10  3.65220E+13 -1.29468E+16  0.00000E+00 " _]
NH3               ATcT3EH   3N   1    0    0G    200.00   4000.00 1000.00      1
 2.36074311E+00 6.31850146E-03-2.28966806E-06 4.11767411E-10-2.90836787E-14    2
-6.41596473E+03 8.02154329E+00 4.14027871E+00-3.58489142E-03 1.89475904E-05    3
-1.98833970E-08 7.15267961E-12-6.68545158E+03-1.66754883E-02-5.47888720E+03    4

HNO               ATcT3EH   1N   1O   1    0G    200.00   6000.00 1000.00      1
 3.24129053E+00 2.72377193E-03-1.60633296E-07-9.79134982E-11 1.17103944E-14    2
 1.17745744E+04 7.27913637E+00 4.55326160E+00-5.84531688E-03 1.88853744E-05    3
-1.76039893E-08 5.72889621E-12 1.16315603E+04 1.66850841E+00 1.28640914E+04    4

H2NO  RADICAL     T09/09N  1.H  2.O  1.   0.G   200.000  6000.000 1000.        1
 3.75555914E+00 5.16219354E-03-1.76387387E-06 2.75052692E-10-1.60643143E-14    2
 6.51826177E+03 4.30933053E+00 3.93201139E+00-1.64028165E-04 1.39161409E-05    3
-1.62747853E-08 6.00352834E-12 6.71178975E+03 4.58837038E+00 7.97044877E+03    4

NNH               T 1/06N  2.H  1.   0.   0.G   200.000  6000.000 1000.        1 
 3.42744423E+00 3.23295234E-03-1.17296299E-06 1.90508356E-10-1.14491506E-14    2
 2.88067740E+04 6.39209233E+00 4.25474632E+00-3.45098298E-03 1.37788699E-05    3
-1.33263744E-08 4.41023397E-12 2.88323793E+04 3.28551762E+00 3.02815661E+04    4

NH2               ATcT3EH   2N   1    0    0G    200.00   3000.00 1000.00      1
 2.62499312E+00 3.39841177E-03-1.01630968E-06 1.25510796E-10-2.66500843E-15    2
 2.15419104E+04 7.73537416E+00 4.06463329E+00-1.10021454E-03 4.25849068E-06    3
-2.68223583E-09 5.89267407E-13 2.11768668E+04 4.39850770E-01 2.23724635E+04    4

NH                ATcT3EH   1N   1    0    0G    200.00   6000.00 1000.00      1
 2.79498941E+00 1.29259567E-03-3.85559094E-07 6.26027608E-11-3.70421913E-15    2
 4.23408998E+04 5.68413752E+00 3.45887003E+00 4.93904408E-04-1.87862560E-06    3
 2.85542239E-09-1.16864671E-12 4.21088372E+04 2.00373292E+00 4.31505966E+04    4

N2H2 equil & transT 9/11N  2.H  2.   0.   0.G   200.000  6000.000 1000.        1
 1.31115117E+00 9.00187208E-03-3.14911824E-06 4.81449581E-10-2.71897891E-14    2
 2.33863341E+04 1.64091067E+01 4.91066031E+00-1.07791880E-02 3.86516489E-05    3
-3.86501698E-08 1.34852134E-11 2.28241901E+04 9.10273396E-02 2.40806734E+04    4

N2H3   Rad.       T 7/11N  2.H  3.   0.   0.G   200.000  6000.000 1000.        1
 4.04483566E+00 7.31130186E-03-2.47625799E-06 3.83733021E-10-2.23107573E-14    2
 2.53241420E+04 2.88423392E+00 3.42125505E+00 1.34901590E-03 2.23459071E-05    3
-2.99727732E-08 1.20978970E-11 2.58198956E+04 7.83176309E+00 2.70438066E+04    4

N2H4 HYDRAZINE    L 5/90N   2H   4    0    0G   200.000  6000.000 1000.        1  
 4.93957357E+00 8.75017187E-03-2.99399058E-06 4.67278418E-10-2.73068599E-14    2
 9.28265548E+03-2.69439772E+00 3.83472149E+00-6.49129555E-04 3.76848463E-05    3
-5.00709182E-08 2.03362064E-11 1.00893925E+04 5.75272030E+00 1.14474575E+04    4

H2NN Isodiazene   T 9/11N  2.H  2.   0.   0.G   200.000  6000.000 1000.        1
 3.05903670E+00 6.18382347E-03-2.22171165E-06 3.58539206E-10-2.14532905E-14    2
 3.48530149E+04 6.69893515E+00 4.53204001E+00-7.32418578E-03 3.00803713E-05    3
-3.04000551E-08 1.04700639E-11 3.49580003E+04 1.51074195E+00 3.61943157E+04    4

HON               ATcT3EH   1N   1O   1    0G    200.00   6000.00 1000.00      1
 4.12044656E+00 2.28738122E-03-7.14685362E-07 1.03332384E-10-5.70484100E-15    2
 2.43643963E+04 3.38857665E+00 4.15272450E+00-3.87826402E-03 2.05476031E-05    3
-2.49049483E-08 9.87365462E-12 2.46037098E+04 4.56636321E+00 2.58064800E+04    4

H2NO  RADICAL     T09/09N  1.H  2.O  1.   0.G   200.000  6000.000 1000.        1
 3.75555914E+00 5.16219354E-03-1.76387387E-06 2.75052692E-10-1.60643143E-14    2
 6.51826177E+03 4.30933053E+00 3.93201139E+00-1.64028165E-04 1.39161409E-05    3
-1.62747853E-08 6.00352834E-12 6.71178975E+03 4.58837038E+00 7.97044877E+03    4

HONO              ATcT3EH   1N   1O   2    0G    200.00   6000.00 1000.00      1
 5.79144641E+00 3.64630732E-03-1.29112765E-06 2.06498233E-10-1.22138679E-14    2
-1.15974343E+04-4.07145349E+00 3.16416438E+00 8.50517773E-03 5.48561573E-07    3
-8.27656474E-09 4.39957151E-12-1.07744086E+04 1.00231941E+01-9.46242812E+03    4

HNO2              ATcT3EH   1N   1O   2    0G    200.00   6000.00 1000.00      1
 4.66358504E+00 4.89854351E-03-1.79694193E-06 2.94420361E-10-1.78235577E-14    2
-7.25216334E+03-3.06053640E-02 4.03779347E+00-4.46123109E-03 3.19440815E-05    3
-3.79359490E-08 1.44570885E-11-6.53088236E+03 5.90620097E+00-5.31122753E+03    4

HONO2             ATcT3EH   1N   1O   3    0G    200.00   6000.00 1000.00      1
 8.03061257E+00 4.46368336E-03-1.72272779E-06 2.91611606E-10-1.80487362E-14    2
-1.93033764E+04-1.62543421E+01 1.55975056E+00 2.01502169E-02-1.15217296E-05    3
-2.31891230E-09 3.17580552E-12-1.73955871E+04 1.77294677E+01-1.61398294E+04    4

NO3               ATcT3EN   1O   3    0    0G    200.00   6000.00 1000.00      1
 7.37569146E+00 2.21733003E-03-5.75695789E-07 6.69775424E-11-2.58934700E-15    2
 6.22445577E+03-1.24945323E+01 3.35586850E+00 1.06545436E-02-2.86690494E-06    3
-5.14711611E-09 3.08532286E-12 7.47534931E+03 8.94786516E+00 8.91542942E+03    4

HNOH trans & Equ  T11/11H  2.N  1.O  1.   0.G   200.000  6000.000 1000.        1
 3.98321933E+00 4.88846374E-03-1.65086637E-06 2.55371446E-10-1.48308561E-14    2
 1.05780106E+04 3.62582838E+00 3.95608248E+00-3.02611020E-03 2.56874396E-05    3
-3.15645120E-08 1.24084574E-11 1.09199790E+04 5.55950983E+00 1.21354115E+04    4

!from San Diego 2016
CHCHO                   H  2 C  2 O  1      G   200.0   3000.0   1000.0        1
 5.96287949E+00 7.99898746E-03-4.30605647E-06 1.11076174E-09-1.11415021E-13    2
 2.87255915E+04-5.17392496E+00 2.06863692E+00 1.87233234E-02-1.21318942E-05    3
-3.33726595E-10 2.32881768E-12 2.97393543E+04 1.47865706E+01                   4

CH3               000000H   3C   1          G       300      5000    1000      1
 2.28571772E+00 7.23990037E-03-2.98714348E-06 5.95684644E-10-4.67154394E-14    2
 1.67755843E+04 8.48007179E+00 3.67359040E+00 2.01095175E-03 5.73021856E-06    3
-6.87117425E-09 2.54385734E-12 1.64449988E+04 1.60456433E+00                   4

! [_ AbsorptionCoefficients=" 1 300 2500 6.6334D+00 -3.5686D-03 1.6682D-08 2.5611D-10 -2.6558D-14 0 0 " _]
CH4               000000H   4C   1          G       300      5000    1000      1
 7.48514950E-02 1.33909467E-02-5.73285809E-06 1.22292535E-09-1.01815230E-13    2
-9.46834459E+03 1.84373180E+01 5.14987613E+00-1.36709788E-02 4.91800599E-05    3
-4.84743026E-08 1.66693956E-11-1.02466476E+04-4.64130376E+00                   4
CH2O              000000H   2O   1C   1     G       300      5000    1000      1
 1.76069008E+00 9.20000082E-03-4.42258813E-06 1.00641212E-09-8.83855640E-14    2
-1.39958323E+04 1.36563230E+01 4.79372315E+00-9.90833369E-03 3.73220008E-05    3
-3.79285261E-08 1.31772652E-11-1.43089567E+04 6.02812900E-01                   4
T-CH2             000000H   2C   1          G       300      5000    1000      1
 2.87410113E+00 3.65639292E-03-1.40894597E-06 2.60179549E-10-1.87727567E-14    2
 4.62636040E+04 6.17119324E+00 3.76267867E+00 9.68872143E-04 2.79489841E-06    3
-3.85091153E-09 1.68741719E-12 4.60040401E+04 1.56253185E+00                   4
S-CH2             000000H   2C   1          G       300      5000    1000      1
 2.29203842E+00 4.65588637E-03-2.01191947E-06 4.17906000E-10-3.39716365E-14    2
 5.09259997E+04 8.62650169E+00 4.19860411E+00-2.36661419E-03 8.23296220E-06    3
-6.68815981E-09 1.94314737E-12 5.04968163E+04-7.69118967E-01                   4
C2H4              000000H   4C   2          G       300      5000    1000      1
 2.03611116E+00 1.46454151E-02-6.71077915E-06 1.47222923E-09-1.25706061E-13    2
 4.93988614E+03 1.03053693E+01 3.95920148E+00-7.57052247E-03 5.70990292E-05    3
-6.91588753E-08 2.69884373E-11 5.08977593E+03 4.09733096E+00                   4
CH3O              000000H   3O   1C   1     G       300      5000    1000      1
 4.75779238E+00 7.44142474E-03-2.69705176E-06 4.38090504E-10-2.63537098E-14    2
 3.90139164E+02-1.96680028E+00 3.71180502E+00-2.80463306E-03 3.76550971E-05    3
-4.73072089E-08 1.86588420E-11 1.30772484E+03 6.57240864E+00                   4
C2H5              000000H   5C   2          G       300      5000    1000      1
 1.95465642E+00 1.73972722E-02-7.98206668E-06 1.75217689E-09-1.49641576E-13    2
 1.28575200E+04 1.34624343E+01 4.30646568E+00-4.18658892E-03 4.97142807E-05    3
-5.99126606E-08 2.30509004E-11 1.28416265E+04 4.70720924E+00                   4
C2H6              000000H   6C   2          G       300      5000    1000      1
 1.07188150E+00 2.16852677E-02-1.00256067E-05 2.21412001E-09-1.90002890E-13    2
-1.14263932E+04 1.51156107E+01 4.29142492E+00-5.50154270E-03 5.99438288E-05    3
-7.08466285E-08 2.68685771E-11-1.15222055E+04 2.66682316E+00                   4
CH                000000H   1C   1          G       300      5000    1000      1
 2.87846473E+00 9.70913681E-04 1.44445655E-07-1.30687849E-10 1.76079383E-14    2
 7.10124364E+04 5.48497999E+00 3.48981665E+00 3.23835541E-04-1.68899065E-06    3
 3.16217327E-09-1.40609067E-12 7.07972934E+04 2.08401108E+00                   4
C2H2              000000H   2C   2          G       300      5000    1000      1
 4.14756964E+00 5.96166664E-03-2.37294852E-06 4.67412171E-10-3.61235213E-14    2
 2.59359992E+04-1.23028121E+00 8.08681094E-01 2.33615629E-02-3.55171815E-05    3
 2.80152437E-08-8.50072974E-12 2.64289807E+04 1.39397051E+01                   4
C2H4OOH           000000H   5O   2C   2     G       300      5000    1000      1
 1.16258666E+01 1.00826346E-02-3.47934362E-06 5.43394220E-10-3.16569294E-14    2
-9.10568267E+02-3.18522902E+01 8.13237801E-01 3.90063400E-02-3.40643855E-05    3
 1.55066226E-08-2.84069840E-12 2.50785787E+03 2.49684459E+01                   4
OC2H3OOH          000000H   4O   3C   2     G       300      5000    1000      1
 1.24064339E+01 9.47233784E-03-3.28107928E-06 5.13772211E-10-2.99872803E-14    2
-3.49123142E+04-3.39479874E+01 5.52382546E+00 2.42068306E-02-1.52898974E-05    3
 5.01728362E-09-6.96406358E-13-3.23406789E+04 3.57240645E+00                   4
C2H3              000000H   3C   2          G       300      5000    1000      1
 3.01672400E+00 1.03302292E-02-4.68082349E-06 1.01763288E-09-8.62607041E-14    2
 3.46128739E+04 7.78732378E+00 3.21246645E+00 1.51479162E-03 2.59209412E-05    3
-3.57657847E-08 1.47150873E-11 3.48598468E+04 8.51054025E+00                   4
CH2CHO            000000H   3O   1C   2     G       300      5000    1000      1
 5.16620060E+00 1.08478260E-02-4.46583680E-06 8.06285480E-10-4.84101930E-14    2
-7.31993470E+02-1.96333610E+00 1.01340010E+00 2.26814670E-02-1.57339440E-05    3
 4.04915030E-09 2.95990120E-13 3.80428530E+02 1.93565520E+01                   4
C2H4O             000000H   4O   1C   2     G       300      5000    1000      1
 5.40411080E+00 1.17230590E-02-4.22631370E-06 6.83724510E-10-4.09848630E-14    2
-2.25931220E+04-3.48079170E+00 4.72945950E+00-3.19328580E-03 4.75349210E-05    3
-5.74586110E-08 2.19311120E-11-2.15728780E+04 4.10301590E+00                   4
HCCO              000000H   1O   1C   2     G       300      5000    1000      1
 5.62820580E+00 4.08534010E-03-1.59345470E-06 2.86260520E-10-1.94078320E-14    2
 1.93272150E+04-3.93025950E+00 2.25172140E+00 1.76550210E-02-2.37291010E-05    3
 1.72757590E-08-5.06648110E-12 2.00594490E+04 1.24904170E+01                   4
CH2CO             000000H   2O   1C   2     G       300      5000    1000      1
 4.51129732E+00 9.00359745E-03-4.16939635E-06 9.23345882E-10-7.94838201E-14    2
-7.55105311E+03 6.32247205E-01 2.13583630E+00 1.81188721E-02-1.73947474E-05    3
 9.34397568E-09-2.01457615E-12-7.04291804E+03 1.22156480E+01                   4
C2H               000000H   1C   2          G       300      5000    1000      1
 3.16780652E+00 4.75221902E-03-1.83787077E-06 3.04190252E-10-1.77232770E-14    2
 6.71210650E+04 6.63589475E+00 2.88965733E+00 1.34099611E-02-2.84769501E-05    3
 2.94791045E-08-1.09331511E-11 6.68393932E+04 6.22296438E+00                   4
CH2OH             000000H   3O   1C   1     G       300      5000    1000      1
 5.09312037E+00 5.94758550E-03-2.06496524E-06 3.23006703E-10-1.88125052E-14    2
-4.05813228E+03-1.84690613E+00 4.47832317E+00-1.35069687E-03 2.78483707E-05    3
-3.64867397E-08 1.47906775E-11-3.52476728E+03 3.30911984E+00                   4
CH3OH             000000H   4O   1C   1     G       300      5000    1000      1
 1.78970791E+00 1.40938292E-02-6.36500835E-06 1.38171085E-09-1.17060220E-13    2
-2.53748747E+04 1.45023623E+01 5.71539582E+00-1.52309129E-02 6.52441155E-05    3
-7.10806889E-08 2.61352698E-11-2.56427656E+04-1.50409823E+00                   4
CH3CHO            000000H   4O   1C   2     G       300      5000    1000      1
 5.40411080E+00 1.17230590E-02-4.22631370E-06 6.83724510E-10-4.09848630E-14    2
-2.25931220E+04-3.48079170E+00 4.72945950E+00-3.19328580E-03 4.75349210E-05    3
-5.74586110E-08 2.19311120E-11-2.15728780E+04 4.10301590E+00                   4
CH3CO             000000H   3O   1C   2     G       300      5000    1000      1
 5.94477310E+00 7.86672050E-03-2.88658820E-06 4.72708750E-10-2.85998610E-14    2
-3.78730750E+03-5.01367510E+00 4.16342570E+00-2.32616100E-04 3.42678200E-05    3
-4.41052270E-08 1.72756120E-11-2.65745290E+03 7.34682800E+00                   4
C2H5OH            000000H   6O   1C   2     G       300      5000    1000      1
 4.34717120E+00 1.86288000E-02-6.77946700E-06 8.16592600E-10 0.00000000E+00    2
-3.06615743E+04 3.24247304E+00 5.76535800E-01 2.89451200E-02-1.61002000E-05    3
 3.59164100E-09 0.00000000E+00-2.96359500E+04 2.27081300E+01                   4
CH2CH2OH          000000H   5O   1C   2     G       300      5000    1000      1
 7.52244726E+00 1.10492715E-02-3.72576465E-06 5.72827397E-10-3.30061759E-14    2
-7.29337464E+03-1.24960750E+01 1.17714711E+00 2.48115685E-02-1.50299503E-05    3
 4.79006785E-09-6.40994211E-13-4.95369043E+03 2.20081586E+01                   4
CH3CHOH           000000H   5O   1C   2     G       300      5000    1000      1
 7.26570301E+00 1.09588926E-02-3.63662803E-06 5.53659830E-10-3.17012322E-14    2
-8.64371441E+03-1.06822851E+01 1.83974631E+00 1.87789371E-02-4.60544253E-06    3
-2.13116990E-09 9.43772653E-13-6.29595195E+03 2.01446141E+01                   4
CH3CH2O           000000H   5O   1C   2     G       300      5000    1000      1
 8.31182392E+00 1.03426319E-02-3.39186089E-06 5.12212617E-10-2.91601713E-14    2
-6.13097954E+03-2.13985581E+01-2.71296378E-01 2.98839812E-02-1.97090548E-05    3
 6.37339893E-09-7.77965054E-13-3.16397196E+03 2.47706003E+01                   4
C3H4              000000H   4C   3          G       300      5000    1000      1
 6.31687220E+00 1.11337280E-02-3.96293780E-06 6.35642380E-10-3.78755400E-14    2
 2.01174950E+04-1.09957660E+01 2.61304450E+00 1.21225750E-02 1.85398800E-05    3
-3.45251490E-08 1.53350790E-11 2.15415670E+04 1.02261390E+01                   4
C3H3              000000H   3C   3          G       300      5000    1000      1
 7.14221880E+00 7.61902005E-03-2.67459950E-06 4.24914801E-10-2.51475415E-14    2
 3.89087427E+04-1.25848436E+01 1.35110927E+00 3.27411223E-02-4.73827135E-05    3
 3.76309808E-08-1.18540923E-11 4.01057783E+04 1.52058924E+01                   4
C3H5              000000H   5C   3          G       300      5000    1000      1
 6.50078770E+00 1.43247310E-02-5.67816320E-06 1.10808010E-09-9.03638870E-14    2
 1.74824490E+04-1.12430500E+01 1.36318350E+00 1.98138210E-02 1.24970600E-05    3
-3.33555550E-08 1.58465710E-11 1.92456290E+04 1.71732140E+01                   4
C3H6              000000H   6C   3          G       300      5000    1000      1
 6.73225700E+00 1.49083400E-02-4.94989900E-06 7.21202200E-10-3.76620400E-14    2
-9.23570300E+02-1.33133500E+01 1.49330700E+00 2.09251800E-02 4.48679400E-06    3
-1.66891200E-08 7.15814600E-12 1.07482600E+03 1.61453400E+01                   4
C3H8              000000H   8C   3          G       300      5000    1000      1
 7.52441520E+00 1.88982820E-02-6.29210410E-06 9.21614570E-10-4.86844780E-14    2
-1.65643940E+04-1.78383750E+01 9.28510930E-01 2.64605660E-02 6.03324460E-06    3
-2.19149530E-08 9.49615440E-12-1.40579070E+04 1.92255380E+01                   4
I-C3H7            000000H   7C   3          G       300      5000    1000      1
 6.51927410E+00 1.72201040E-02-5.73642170E-06 8.41307320E-10-4.45659130E-14    2
 7.32271930E+03-9.08302150E+00 1.44491990E+00 2.09991120E-02 7.70362220E-06    3
-1.84762530E-08 7.12829620E-12 9.42237240E+03 2.01163170E+01                   4
N-C3H7            000000H   7C   3          G       300      5000    1000      1
 7.70974790E+00 1.60314850E-02-5.27202380E-06 7.58883520E-10-3.88627190E-14    2
 7.97622360E+03-1.55152970E+01 1.04911730E+00 2.60089730E-02 2.35425160E-06    3
-1.95951320E-08 9.37202070E-12 1.03123460E+04 2.11360340E+01                   4
C3H6OOH           000000H   7O   2C   3     G       300      5000    1000      1
 1.46139980E+01 1.43723015E-02-4.88635144E-06 7.56519620E-10-4.38364992E-14    2
-6.46101457E+03-4.57478245E+01 1.91005011E+00 4.11666833E-02-2.51630217E-05    3
 7.11856873E-09-6.98838732E-13-1.79305093E+03 2.34514457E+01                   4
OC3H5OOH          000000H   6O   3C   3     G       300      5000    1000      1
 1.70285271E+01 1.30716784E-02-4.59310856E-06 7.26135156E-10-4.26658337E-14    2
-4.16334217E+04-5.92513577E+01 7.68933034E-01 5.46905880E-02-4.65072405E-05    3
 2.03159585E-08-3.58398999E-12-3.63238861E+04 2.68291637E+01                   4
C4H10      8/ 4/ 4 THERMC   4H  10    0    0G   300.000  5000.000 1392.000    31
 1.24940183E+01 2.17726258E-02-7.44272215E-06 1.15487023E-09-6.69712949E-14    2
-2.18403437E+04-4.45558921E+01-4.55756824E-01 4.80323389E-02-2.65497552E-05    3
 6.92544700E-09-6.38317504E-13-1.68960904E+04 2.64870966E+01                   4
PC4H9      8/ 4/ 4 THERMC   4H   9    0    0G   300.000  5000.000 1391.000    31
 1.20779744E+01 1.96264778E-02-6.71302199E-06 1.04206424E-09-6.04469282E-14    2
 3.22550473E+03-3.87719384E+01 3.20730933E-01 4.34654454E-02-2.40584970E-05    3
 6.28245308E-09-5.80113166E-13 7.71490893E+03 2.57301085E+01                   4
SC4H9      8/ 4/ 4 THERMC   4H   9    0    0G   300.000  5000.000 1381.000    31
 1.16934304E+01 1.96402287E-02-6.65306517E-06 1.02631895E-09-5.92826294E-14    2
 1.96382429E+03-3.61626672E+01 8.49159986E-01 3.82085320E-02-1.49626797E-05    3
 2.04499211E-10 8.24254437E-13 6.38832956E+03 2.44466606E+01                   4
C4H8                    C   4H   80   00   0G   300.00   5000.00  1000.00      1
 0.20535840E+01 0.34350500E-01-0.15883196E-04 0.33089660E-08-0.25361040E-12    2
-0.21397230E+04 0.15543201E+02 0.11811380E+01 0.30853380E-01 0.50865240E-05    3
-0.24654880E-07 0.11110192E-10-0.17904000E+04 0.21062470E+02                   4
SC4H9O2    7/19/ 0 THERMC   4H   9O   2    0G   300.000  5000.000 1389.000    41
 1.64031135E+01 2.09361006E-02-7.23393011E-06 1.13058996E-09-6.58938667E-14    2
-1.85074517E+04-5.77331636E+01 1.32689044E+00 5.62785583E-02-4.01717786E-05    3
 1.57120967E-08-2.62948443E-12-1.31557057E+04 2.34069659E+01                   4
C4H8OOH1-3 7/19/ 0 THERMC   4H   9O   2    0G   300.000  5000.000 1377.000    51
 1.76442170E+01 1.91706536E-02-6.57168641E-06 1.02246571E-09-5.94304735E-14    2
-1.01859280E+04-6.17115813E+01 1.94106276E+00 5.18789351E-02-3.10411683E-05    3
 8.63568881E-09-8.42841994E-13-4.34315962E+03 2.40230471E+01                   4
NC4KET13   7/19/ 0 THERMC   4H   8O   3    0G   300.000  5000.000 1386.000    51
 1.96430808E+01 1.80940566E-02-6.33063232E-06 9.97860399E-10-5.85076458E-14    2
-4.59588851E+04-7.16905094E+01 2.74883461E+00 5.86936745E-02-4.49605895E-05    3
 1.83200130E-08-3.11765369E-12-4.01065878E+04 1.88072090E+01                   4


!From Konnov2019
CN Cyanogen       IU8/03C  1.N  1.   0.   0.G   200.000  6000.000  1000.0      1
 3.39912850E+00 7.46548662E-04-1.41493852E-07 1.86747736E-11-1.26032540E-15    2
 5.16569715E+04 4.67148681E+00 3.61256069E+00-9.53015737E-04 2.13757271E-06    3
-3.05001808E-10-4.70518097E-13 5.17084034E+04 3.98238722E+00 5.27611901E+04    4
HCN               ATcT/AH  1.C  1.N  1.   0.G   200.000  6000.000  1000.0      1
 3.80231648E+00 3.14630087E-03-1.06315727E-06 1.66185438E-10-9.79891962E-15    2
 1.42849502E+04 1.57501632E+00 2.25901199E+00 1.00510475E-02-1.33514567E-05    3
 1.00920479E-08-3.00880408E-12 1.45903166E+04 8.91631960E+00 1.56111424E+04    4
HNC              ATcT/A H   1N   1C   1    0G   200.000  6000.000 1000.000     1
 4.22248262E+00 2.59458082E-03-8.58480324E-07 1.30744940E-10-7.50339813E-15    2
 2.17156730E+04-7.79706410E-02 2.30186822E+00 1.54157449E-02-3.13261898E-05    3
 3.08816218E-08-1.11912204E-11 2.19306327E+04 8.14749128E+00 2.30810956E+04    4
H2CN  H2C=N*   H  T 11/1C  1.H  2.N  1.   0.G   200.000  6000.000  1000.0      1
 3.80315578E+00 5.47197362E-03-1.95314875E-06 3.13362403E-10-1.86249384E-14    2
 2.71302747E+04 3.31759436E+00 3.97799555E+00-3.43275801E-03 2.59134260E-05    3
-3.04692171E-08 1.16272717E-11 2.74854081E+04 4.43067396E+00 2.86930920E+04    4
HCNH  H*C=NH  ci  T11/11C  1.H  2.N  1.   0.G   200.000  6000.000  1000.0      1
 4.21964637E+00 5.00385318E-03-1.76392242E-06 2.80726369E-10-1.65852271E-14    2
 3.33371750E+04 1.67137973E+00 3.68324272E+00-1.38553491E-03 2.40042193E-05    3
-3.11573911E-08 1.25791822E-11 3.38192680E+04 6.21247271E+00 3.50122858E+04    4
NCN  MethaneTetr  T 5/14C  1.N  2.   0.   0.G   200.000  6000.000  1000.0      1
 5.68744173E+00 1.82662756E-03-7.07546249E-07 1.19515592E-10-7.31827071E-15    2
 5.15901177E+04-6.31954433E+00 2.79807977E+00 1.00008683E-02-9.59229469E-06    3
 4.75546842E-09-1.04340146E-12 5.24021705E+04 8.62129767E+00 5.36050832E+04    4
HCNN              SRI/94C   1N   2H   10   0G   300.000  5000.000  1000.000    1
 0.58946362E+01 0.39895959E-02-0.15982380E-05 0.29249395E-09-0.20094686E-13    2
 0.53452941E+05-0.51030502E+01 0.25243194E+01 0.15960619E-01-0.18816354E-04    3
 0.12125540E-07-0.32357378E-11 0.54261984E+05 0.11675870E+02                   4